155

 C        -1.7940391479       -5.6721703595       -9.0741904837
 C        -2.5485836094       -4.5446200958       -8.3715567813
 C        -3.2398643523       -3.4777568429       -9.2590663251
 C        -3.3939342318       -2.1322653939       -8.5583617364
 C        -2.1339398879       -1.5483960254       -7.8543432951
 C        -2.3974950628       -3.2557692382      -10.6084962852
 C        -4.5885434572       -4.1257242944       -9.7554363307
 O        -2.8917602163       -4.6612198310       -7.1923976247
 O        -4.4112959608       -1.4898520112       -8.5327404268
 C        -2.4361569115       -0.0427198532       -7.7582486206
 C        -1.2155453057        0.5541014965       -6.8289609499
 C        -0.7202686456        2.0970160073       -6.9377778115
 C        -0.6300328229        2.6260255128       -5.2850022066
 C        -1.9430250427        3.2870883379       -4.5492979566
 O        -0.5503731363       -0.2150696620       -6.1306987692
 O         0.4001681677        2.5316827041       -4.6697326888
 C         0.7466603466        2.0118064147       -7.3708224878
 C        -1.5513735832        2.9299015397       -7.9089356519
 C        -1.9923516542        3.1326733771       -3.0238110853
 C        -2.0430686656        1.6014062899       -2.6725969016
 C        -1.8378612104        1.2677678863       -1.1686788278
 C        -0.3086697589        1.3043237686       -0.9977750624
 C         0.5950070132        0.3260791474       -1.8027062871
 C        -2.3941038070        2.3229402628       -0.1802952068
 C        -2.4772259538       -0.1095660286       -0.8308315080
 O        -2.1735076618        0.7220810291       -3.4594048352
 O         0.1974560652        2.3207956796       -0.5312987641
 C         2.1283559698        0.4245276254       -1.4965313333
 C         2.5216861368        0.3839691412       -0.0692182008
 C         4.0320612088        0.9299885093        0.5183718623
 C         3.6563245688        1.8801744991        1.6845457873
 C         4.4722650552        3.1427237147        1.8450115026
 O         1.7539112253       -0.0894752872        0.7492829165
 O         2.8802018483        1.6489645728        2.6187046668
 C         4.7079203867       -0.3345463274        1.0995605017
 C         4.8250323730        1.6277425079       -0.6833200109
 C         3.7653821616        4.1238838573        2.7516030827
 C         2.3007621225        4.5446606836        2.2760544855
 C         1.2707587752        5.2214910658        3.2008038160
 C         0.1253312345        4.1669841870        3.4461553801
 C         0.3908665762        3.0755035045        4.4990521230
 C         1.8004351949        5.6352835447        4.5553005982
 C         0.5998127103        6.4696440890        2.4569628333
 O         2.0513066389        4.2394513067        1.1220179469
 O        -1.0109598252        4.2691800802        3.0075119115
 C        -0.6070450816        3.3881682514        5.5817621628
 C        -1.0198450339        2.2186763951        6.4761207102
 C        -1.8826640071        0.9537307605        5.9157099792
 C        -0.7272275939       -0.0285522036        5.5695816530
 C        -0.1502561589       -0.9633044983        6.6889570206
 O        -0.6890537402        2.0649888307        7.6191877381
 O        -0.3397118860       -0.0391638434        4.4023012337
 C        -2.7449984338        0.3892623640        7.0471026042
 C        -2.8053774378        1.2568394522        4.6610461997
 C         1.3332462389       -0.9386128698        6.6818078507
 C         2.1047576774       -1.5722120172        5.5227936860
 C         1.7124901628       -3.0655354288        5.1054783263
 C         0.7837695017       -3.0470070593        3.7684755470
 C        -0.1254864922       -4.2042456049        3.4770541945
 C         2.9947176746       -3.6555156042        4.5972511049
 C         1.1587404371       -3.9721730284        6.1377653900
 O         2.9937137449       -1.0089756647        4.9665661525
 O         1.0710537684       -2.2747812490        2.8470959469
 C        -1.1943658424       -3.8858863014        2.3798511111
 C        -2.0353848254       -5.1152341657        2.0622475067
 C        -1.7216038096       -5.9979097057        0.8539157426
 C        -2.0480686521       -5.0730957128       -0.3958391173
 C        -3.2797785834       -5.4121923387       -1.1243105432
 O        -2.9989323312       -5.4323837600        2.7355778322
 O        -1.3391751882       -4.0656483079       -0.5730637122
 C        -0.0972498216       -6.3870497010        0.8063822588
 C        -2.5482924365       -7.2938203737        0.8428229318
 H        -1.2106621573       -5.2805850478       -9.9320969025
 H        -1.1214331298       -6.1187531235       -8.3930166107
 H        -2.5806021566       -6.4046593429       -9.4126290107
 H        -2.0015982659       -1.9355834151       -6.8254306098
 H        -1.2400841796       -1.9402694710       -8.3906640865
 H        -2.5205793175       -4.0840429160      -11.3512619635
 H        -1.3596688006       -3.1519382074      -10.3764398760
 H        -2.7245375061       -2.3068367765      -11.0764389471
 H        -5.0492844849       -3.4001420830      -10.4347434543
 H        -4.2482500458       -5.0586667916      -10.2315813753
 H        -5.3061162038       -4.3148153150       -8.8984611605
 H        -2.5205174693        0.4774570291       -8.6891425862
 H        -3.3225987827        0.0871881297       -7.2490215989
 H        -1.8141132435        4.3561349339       -4.7064150241
 H        -2.8942794150        2.8821038725       -5.0228979980
 H         1.2186970427        2.9559182955       -7.6319486293
 H         0.7021018604        1.4426434693       -8.3335021804
 H         1.3432933283        1.5190557327       -6.5423131711
 H        -2.3843779753        3.4055606105       -7.4050068278
 H        -0.9666434145        3.7013893335       -8.4254493721
 H        -1.9358038368        2.3612651178       -8.7515520767
 H        -2.8713608629        3.6515054951       -2.6881218662
 H        -1.2285906771        3.4616282151       -2.3053864036
 H         0.3248743740       -0.7013356829       -1.7478238425
 H         0.3205746824        0.5643904723       -2.8355189939
 H        -3.5243781523        2.4429350871       -0.1652315583
 H        -2.0248941455        3.3656872433       -0.3841661141
 H        -2.0754533414        2.1337223401        0.8151646491
 H        -3.5278082753        0.0070449062       -0.4480059683
 H        -2.5397464481       -0.7798320970       -1.6665419249
 H        -1.8941834822       -0.6130869298       -0.0618230364
 H         2.5130509784       -0.4786786773       -1.9721584195
 H         2.5556079153        1.2972336390       -2.0133823333
 H         5.3757161234        2.9576280714        2.3352043225
 H         4.6817933546        3.6148972943        0.8951849489
 H         5.5680394367       -0.2355399527        1.8198115242
 H         5.0813042339       -0.8099947828        0.1636287497
 H         4.0011836565       -0.9673799016        1.5854732459
 H         5.6973445836        2.0630163396       -0.2888276874
 H         4.9277614493        0.8848056333       -1.4751182610
 H         4.2357099791        2.3812991621       -1.1985143973
 H         4.2912326229        5.1587730297        2.4379227984
 H         3.7283524141        3.8592832889        3.8874175327
 H         0.0863942515        2.1100357344        4.0266936068
 H         1.4941171647        3.0514174374        4.7741691244
 H         2.0115728120        4.7770525545        5.1439529943
 H         0.9962325401        6.2336681952        5.0093508287
 H         2.6777194285        6.2622261355        4.4597313376
 H         1.2838313902        7.0187228703        1.8193784898
 H        -0.2244594822        6.1121222433        1.9208231517
 H         0.2080838938        7.0936933046        3.2504856353
 H        -0.2512405883        4.1892112758        6.2773606213
 H        -1.5096401170        3.7721377892        5.1278593468
 H        -0.5034807919       -0.6029545708        7.6661566833
 H        -0.4573123151       -1.9642402976        6.5619402491
 H        -3.7738723135        0.7842647203        6.9254977998
 H        -2.2171365163        0.7267635861        7.9485320965
 H        -2.9529217846       -0.6822765158        6.8878760001
 H        -2.2897120994        1.6665534772        3.8409708369
 H        -3.2618593891        0.3119289471        4.4151320408
 H        -3.6233397745        1.9981460730        4.8781223397
 H         1.7334689708       -1.4560538685        7.5326334357
 H         1.7386801732        0.0884716282        6.7635866974
 H         0.3878972615       -5.1513487822        3.3726296653
 H        -0.8434404011       -4.4016623845        4.3427577108
 H         2.6850595895       -4.5390680269        4.0412512912
 H         3.6892573756       -3.9382857100        5.4517206629
 H         3.6006239062       -3.0641272232        3.8993667994
 H         1.6386463912       -3.9236154387        7.0577933473
 H         0.0399100477       -3.8387856583        6.1734595541
 H         1.1959870149       -4.9988604371        5.8337598605
 H        -1.8551312642       -3.0801536021        2.6550776905
 H        -0.7527966351       -3.4412181607        1.4755599860
 H        -3.4181650036       -4.6805941473       -1.9264441096
 H        -2.9898261469       -6.2695949886       -1.6895373454
 H        -4.1324102475       -5.4816955817       -0.4705969327
 H         0.1892871165       -6.6801490801        1.8477767893
 H         0.4436020736       -5.5457143867        0.4453253666
 H         0.0182341505       -7.2040771695        0.1402388737
 H        -2.4372612142       -7.7744404422       -0.1827856175
 H        -2.0984218362       -8.1454453499        1.4342398506
 H        -3.6422871866       -7.0461609166        1.0729626348
 Na        1.6815491240       -0.2621542881        3.0727400475
