155

 C        -1.4631680218       -5.3477817519       -9.5712307964
 C        -2.2709070659       -4.2595398593       -8.9608729088
 C        -2.8091545475       -3.1032975720       -9.7870383224
 C        -2.8035670431       -1.6500269870       -9.0777496224
 C        -1.5712885781       -1.2731348235       -8.2992498325
 C        -2.0850591894       -2.9474113145      -11.1926516548
 C        -4.3501570482       -3.4469799005       -9.9451189185
 O        -2.4101428075       -4.3817152654       -7.7281774128
 O        -3.7739976897       -0.9552004911       -9.3280560944
 C        -1.4320515854        0.3597989407       -8.3069902915
 C        -0.2615094720        0.8882084748       -7.3825569350
 C        -0.2838245027        2.2881011370       -6.7460061400
 C        -0.5771463006        2.0064923181       -5.2610385340
 C        -1.8868759976        2.7019545178       -4.7572467689
 O         0.6973398796        0.1531259478       -7.1327894820
 O         0.2437529959        1.5416355709       -4.5177277390
 C         1.2499463118        2.8810812055       -6.6112682800
 C        -1.1818906329        3.3380458935       -7.4257347845
 C        -1.8568419543        2.6606227175       -3.2717075966
 C        -2.5654357583        1.3896781141       -2.7068316606
 C        -2.3724651090        1.0121181604       -1.1636641036
 C        -0.9269392236        1.3662047366       -0.7428353964
 C         0.2748766523        0.6204074791       -1.4582805604
 C        -3.4709459983        1.6020796686       -0.2362865890
 C        -2.4188086222       -0.5953049627       -1.1933017960
 O        -3.3536452760        0.7862584919       -3.4000991406
 O        -0.7107886638        2.2420611401        0.1115443444
 C         1.6610308195        1.2332902382       -1.0966993460
 C         2.1824092705        0.8153237982        0.2392274222
 C         3.6378042597        1.2252146742        0.6987196510
 C         3.4163158043        2.1117221911        1.9508566047
 C         3.8570625762        3.6065193151        1.8653579636
 O         1.4170351146        0.2463435714        1.0194561324
 O         2.7682485070        1.7429932163        2.9165006378
 C         4.3408261773       -0.1514153347        0.9565419256
 C         4.3356867603        1.9366143382       -0.4745975040
 C         3.0715097012        4.4799465036        2.7575383299
 C         1.6561365515        4.8920575841        2.1973698698
 C         0.4812644230        5.4733643585        3.1395690511
 C        -0.5464398623        4.2918249453        3.3171752547
 C        -0.3110076766        3.2103924460        4.4051454700
 C         1.0368597849        5.9787243539        4.4836389460
 C        -0.2234946791        6.6358179597        2.3569470190
 O         1.4993996641        5.0131272567        0.9823269093
 O        -1.6156806355        4.2816719169        2.7262369377
 C        -1.6551494311        3.0333635917        5.1517585493
 C        -1.3687185180        2.1202946114        6.3270332998
 C        -1.7978547750        0.5416655400        6.2047940427
 C        -0.4643521805       -0.1690450374        6.1450699638
 C         0.0949492646       -0.9207958102        7.3174104956
 O        -0.8974692553        2.4265149600        7.3534769416
 O         0.1713907545       -0.0034805561        5.1372057945
 C        -2.7429254159        0.3641678809        7.3672906809
 C        -2.5420125746        0.1900002956        4.8819943636
 C         1.5538853422       -1.4427806857        7.1413062419
 C         2.0884640163       -1.8401278119        5.8292005006
 C         1.9984005176       -3.2404148479        5.1668060374
 C         1.2593435702       -3.3618060224        3.7235611088
 C         0.8873556428       -4.8156787382        3.4017435420
 C         3.5113809754       -3.5665498246        4.8345790400
 C         1.5003895081       -4.3896962739        6.0993540134
 O         2.9184048978       -1.0350784675        5.3469727181
 O         1.1475350897       -2.4944049335        2.9089753647
 C         0.4179017309       -5.2171458521        1.9740919725
 C        -0.8455783120       -6.0437627101        1.9439753687
 C        -1.5277975439       -6.4214629223        0.4787211990
 C        -2.2809728105       -5.0068721758        0.1108220345
 C        -3.8304593603       -4.9535867165        0.0343965516
 O        -1.4431531053       -6.3987003478        2.9491043752
 O        -1.5699910707       -4.0291123100       -0.1301546757
 C        -0.4278137404       -6.7313181091       -0.5317308168
 C        -2.4435298267       -7.5574261440        0.6578611042
 H        -1.1557123767       -6.0763043097       -8.8148094781
 H        -2.0941719031       -5.8366447934      -10.2475387956
 H        -0.5591918339       -4.9061934386      -10.1517601978
 H        -1.6022657291       -1.4867471333       -7.3034855108
 H        -0.6847711454       -1.6519327911       -8.7532752197
 H        -2.3030825997       -3.6697514071      -11.9196855630
 H        -1.0575968503       -2.9497128766      -10.8459350008
 H        -2.3056929935       -2.0181936659      -11.6352813617
 H        -4.7565770329       -2.6398917573      -10.6014952665
 H        -4.5671895689       -4.4186420006      -10.4136425099
 H        -4.8346951845       -3.5489860243       -8.9412627227
 H        -1.2047760310        0.7383142309       -9.2720186479
 H        -2.3467240654        0.8053739440       -7.9323275349
 H        -1.9983369916        3.7598659205       -5.1573960913
 H        -2.6406649691        2.0090527583       -5.1721707078
 H         1.2492207302        3.7074377269       -5.9685964284
 H         1.5729132484        3.1202165672       -7.6238885139
 H         1.8606120418        2.0641089598       -6.2929093471
 H        -0.9287865842        4.3538876910       -7.1729988882
 H        -0.8545671801        3.1734085925       -8.4726575093
 H        -2.2634746988        3.2354793661       -7.4331505233
 H        -2.4502312314        3.5111604331       -2.8441793937
 H        -0.8291736037        2.7477325019       -2.9106583852
 H         0.2140287795       -0.3540669818       -1.1001314308
 H         0.0677800541        0.6326326990       -2.5147435701
 H        -4.5492763534        1.2849211909       -0.4888387295
 H        -3.3999206325        2.7400807842       -0.3530764532
 H        -3.3021153963        1.3878568346        0.8048831824
 H        -3.1938532230       -0.9210638684       -1.8458069916
 H        -1.4428276022       -1.0086511500       -1.3930003395
 H        -2.7901534994       -0.9940624623       -0.2271301610
 H         2.1994161439        0.8468492925       -1.8891964671
 H         1.4997158393        2.2821582387       -1.2537819226
 H         4.8913717349        3.7102974352        2.1656458765
 H         3.9059364357        3.9778398538        0.8801780278
 H         5.5056979064       -0.1007852513        0.8836759049
 H         3.9763461205       -0.7892322291        0.1850553467
 H         4.0789257273       -0.6283557937        1.8706200197
 H         5.4086578290        2.2095185400       -0.3542170672
 H         4.2450247804        1.1932904637       -1.2642707518
 H         3.8582508257        2.8612780771       -0.6557052898
 H         3.4958321523        5.3734118655        2.8767632980
 H         2.9623205124        4.1063266972        3.6877243324
 H         0.1076675892        2.3288727403        3.8285764889
 H         0.5254883686        3.5676586222        5.0890525359
 H         1.4936191230        5.2523594782        5.1358577428
 H         0.2766346808        6.4778874164        5.1553391855
 H         1.6328695280        6.7936479572        4.2443440274
 H         0.5386042460        7.0627681474        1.6852237149
 H        -1.0763335752        6.3626675015        1.7949523555
 H        -0.4195609674        7.4509342028        3.0654841196
 H        -1.9991808599        3.9827383111        5.5326831748
 H        -2.3447199467        2.6348844815        4.4176054459
 H         0.0652252960       -0.1688466280        8.0941273912
 H        -0.4845428254       -1.7401389515        7.6887011604
 H        -3.4120003880        1.2299078677        7.5086791809
 H        -2.1863573153        0.2827197296        8.2951347840
 H        -3.3505707485       -0.6155203444        7.2892777132
 H        -1.9020468450        0.1791173166        4.0297502742
 H        -3.0403144538       -0.7442150963        4.9592645394
 H        -3.4265150447        0.8283104344        4.7779431167
 H         1.7572819426       -2.2785617539        7.8671753102
 H         2.2882465218       -0.7059487931        7.3823906960
 H         1.5902175354       -5.6373139912        3.7875288751
 H        -0.0662728803       -4.9752267728        3.9056339917
 H         3.6688523547       -4.6554371201        4.5829549867
 H         4.1396258319       -3.4702921323        5.7594527002
 H         4.0586862147       -2.9088460275        4.1079554321
 H         1.9859424431       -4.3265197924        7.0472256033
 H         0.4328811783       -4.4004932683        6.3365454889
 H         1.8528618337       -5.2622655388        5.6134929308
 H         0.1642880924       -4.2438438169        1.4963956404
 H         1.2844316878       -5.6296766763        1.4777089961
 H        -4.1158711224       -4.0864357265        0.6321048740
 H        -4.2216815400       -4.9285021383       -0.9760353179
 H        -4.0785875303       -5.8955554173        0.5399524735
 H         0.2556266879       -7.4374656515       -0.1243463058
 H         0.0556555910       -5.7553880304       -0.7910364796
 H        -0.8317212599       -7.2398374843       -1.4511622636
 H        -3.0589691824       -7.8257705868       -0.2654252720
 H        -1.8263884417       -8.4515732207        1.0489903499
 H        -2.9459403881       -7.3569560635        1.6465609877
 Na        1.8417123799       -0.3927829906        3.4428592079
