155

 C        -1.5015770208       -4.7997142194       -9.9390183976
 C        -1.4171256989       -3.3818268509       -9.4140905195
 C        -2.1159591644       -2.2044939399      -10.3489064071
 C        -2.0556571378       -0.9684713642       -9.3840423797
 C        -0.7454722394       -0.2063052431       -9.0569242725
 C        -1.1327426235       -2.0892012504      -11.5377806361
 C        -3.4976103241       -2.5955786835      -10.7628137679
 O        -0.8368224254       -3.1241406689       -8.3626321477
 O        -3.0982619353       -0.5042769151       -9.0119068631
 C        -0.8816307992        0.4581948831       -7.6140587543
 C         0.2583375765        1.4326827527       -7.4392208975
 C         0.2961295573        2.4738048966       -6.1121498055
 C        -0.6589543694        1.8158838024       -5.1129615279
 C        -2.1326452140        2.1596148481       -5.0395888133
 O         1.1501965541        1.4540386903       -8.2237091178
 O        -0.1351534097        1.0496629158       -4.3006909927
 C         1.8328108702        2.7133051752       -5.5873072776
 C        -0.2023292086        3.9265484257       -6.7099856164
 C        -2.7034517570        2.1004662156       -3.6374867615
 C        -2.8478345511        0.6124230098       -3.2697417619
 C        -3.0086369933        0.3362931573       -1.7252566817
 C        -1.7032900444        0.9718381028       -1.1069037816
 C        -0.3548731112        0.1760183201       -1.1725109650
 C        -4.1264043183        1.2604629382       -1.2082925772
 C        -3.1465219308       -1.1765380330       -1.3111671120
 O        -2.7549521565       -0.2396718034       -4.0922892963
 O        -1.7472433395        2.0854056283       -0.5397726660
 C         0.9000002361        1.0235084567       -0.8763135732
 C         1.7156008869        0.6039795318        0.3561963396
 C         2.8272120473        1.5767500534        0.8522291287
 C         2.3047654375        2.3608145984        2.1545694067
 C         2.8740246744        3.8922345467        2.3460214309
 O         1.5265329702       -0.4613398843        0.8889879059
 O         1.7607550026        1.7910124911        3.0864871281
 C         3.9888099576        0.7598512388        1.4043478226
 C         3.4642984465        2.5388074870       -0.1769923100
 C         1.9225353529        4.7518875134        3.1956146719
 C         0.4786627807        4.8536402259        2.5571211572
 C        -0.4769016120        5.8633752423        3.1650732769
 C        -1.6904446835        4.8735035616        3.8682939753
 C        -1.2017933999        3.8317302033        4.8068875077
 C        -0.0282004147        6.9260760172        4.2406530930
 C        -1.2664139945        6.5774970500        1.9772557359
 O         0.2729270603        4.1542116988        1.5687989539
 O        -2.8638504756        5.1080043565        3.8927591649
 C        -1.9428266146        2.5216653389        4.6875412721
 C        -1.4701039309        1.6637748594        5.7990189888
 C        -1.8185079184        0.0513452927        5.7766207821
 C        -0.5789253409       -0.6366068652        4.9995768922
 C         0.1223503348       -1.9151525352        5.6135102930
 O        -0.7717751594        2.1639237835        6.7048235842
 O        -0.2268937142       -0.3429297669        3.8703250725
 C        -1.9776011845       -0.2693614769        7.2862592368
 C        -3.0132642195       -0.2057555877        4.9365545157
 C         1.4836376596       -1.5211843967        6.2738645330
 C         2.7325974614       -2.2112183357        5.6621390044
 C         2.7497092456       -3.7104637586        5.4278600634
 C         2.0230665424       -3.9147931173        4.0633730677
 C         1.2409894194       -5.1914350088        3.7660176018
 C         4.1588485426       -4.4227723903        5.2497617655
 C         1.9223930887       -4.4442450060        6.5319631245
 O         3.7691086617       -1.5174241130        5.5640175754
 O         2.1420100241       -3.0779649014        3.1778905927
 C         1.1815306513       -5.4799398180        2.2548020911
 C        -0.0025585755       -6.3184877666        1.9913678293
 C        -0.9380590401       -5.9908270430        0.8023484078
 C        -1.7728039943       -4.9447579781        1.5864543417
 C        -2.9553250095       -5.3775572434        2.4749177963
 O        -0.2808383950       -7.1724045056        2.7964830704
 O        -1.2746852571       -3.8707052018        1.7662020365
 C        -0.3344742326       -5.2041050919       -0.4047608888
 C        -1.7990839870       -7.1093783188        0.1875793883
 H        -2.2014807275       -5.3304709112       -9.3385059054
 H        -1.7699468132       -4.9915241323      -10.9556741603
 H        -0.5660206209       -5.3717886519       -9.6516934750
 H         0.1888952991       -0.6845256546       -9.2603705441
 H        -0.7267349375        0.6591577498       -9.6560132939
 H        -1.3851022564       -2.8746314614      -12.2180187986
 H        -0.0568238153       -2.1906138041      -11.1668533457
 H        -1.2612192005       -1.2291940520      -12.1967098881
 H        -4.0075682663       -1.8279805676      -11.2758780002
 H        -3.4228151827       -3.3219068539      -11.4979723060
 H        -4.2103292312       -3.0806006908      -10.0076975073
 H        -1.9358788420        0.7763658682       -7.5958562554
 H        -0.8415117758       -0.1373096122       -6.7356827548
 H        -2.4755219487        3.1241375339       -5.5646373114
 H        -2.7416728616        1.4167482438       -5.6326937319
 H         1.8517961000        3.7136512971       -5.2119403127
 H         2.4402762111        2.5038313855       -6.5006105596
 H         2.1415135856        1.9581979944       -4.8771868745
 H        -0.4913556147        4.6272040387       -5.9048366747
 H         0.5868065304        4.2762025027       -7.3838748721
 H        -1.0913499221        3.8353509670       -7.3743930520
 H        -3.5096635716        2.8034558148       -3.4970610383
 H        -1.9484909021        2.5345424022       -2.9631706712
 H        -0.3803693804       -0.7056565775       -0.4581821019
 H        -0.2903965886       -0.2019456537       -2.1942452065
 H        -5.1185625470        0.8214830744       -1.6695857706
 H        -3.9031816829        2.3004482825       -1.5094364236
 H        -4.2328914179        1.0921703762       -0.1768436936
 H        -4.1358882024       -1.2143781317       -0.9556787878
 H        -2.9843645218       -1.8432129978       -2.1463627794
 H        -2.5264950816       -1.3947399273       -0.4373982708
 H         1.5780158818        1.0930669455       -1.7683056012
 H         0.6438489819        2.0700762906       -0.8568034373
 H         3.7919551903        3.8331505668        2.9745239166
 H         3.0907197061        4.2779735162        1.3662342964
 H         4.7160862962        1.4893257983        1.9328579565
 H         4.5200275106        0.1303613534        0.6967605078
 H         3.6470486376        0.0058839939        2.1030362366
 H         4.3784233865        3.1487963916        0.0728229153
 H         3.6141685360        1.8828782850       -1.0401387636
 H         2.7929647145        3.3253356643       -0.4097845442
 H         2.3728586379        5.7783157581        3.3384014849
 H         1.9325594511        4.2999160820        4.2280465529
 H        -0.1296633912        3.6235775085        4.7569761468
 H        -1.4466269302        4.2143918107        5.7791026583
 H         0.5904098690        6.3845452822        5.0013597671
 H        -0.9032703088        7.2815386795        4.8313492850
 H         0.4800433230        7.7814192918        3.9263627374
 H        -1.9858063283        7.3052839061        2.3497154769
 H        -0.5781396056        7.0457535931        1.2854459939
 H        -1.8071083559        5.8364600008        1.3894498495
 H        -2.9582296625        2.7779325950        4.6883940389
 H        -1.6891125298        2.0593348187        3.7331844029
 H        -0.4648848784       -2.4160031724        6.2730097189
 H         0.3554331332       -2.5450103359        4.7218252588
 H        -2.7679174406        0.2956566987        7.7295974562
 H        -1.1236682365       -0.0215495271        7.8390614763
 H        -2.0337542353       -1.3051024919        7.5991171169
 H        -2.8141464392        0.1532455361        3.9433904075
 H        -3.1844669911       -1.2766034034        4.9397111380
 H        -3.9461164033        0.2046510238        5.3629183587
 H         1.4124059312       -1.7756092232        7.3398256888
 H         1.6920589668       -0.4651915862        6.1881202205
 H         1.5397312361       -6.0450918698        4.3450400986
 H         0.1746994998       -5.1070036471        4.0865654722
 H         4.2342242137       -5.2936561289        4.6260142088
 H         4.5726085719       -4.7413642400        6.2015980645
 H         4.8653849801       -3.6990781772        4.9000200804
 H         2.1557676534       -4.1712545260        7.5386880489
 H         0.8009504816       -4.1887332195        6.4793516552
 H         2.1396710446       -5.4843346748        6.3615766344
 H         1.0865266336       -4.5727346646        1.6650115938
 H         1.9961684707       -5.9695736983        1.7185723112
 H        -3.4034010867       -4.4678613063        2.9189127723
 H        -3.6339908154       -5.7701370812        1.7270947081
 H        -2.6365362633       -6.1345386081        3.2085578554
 H         0.6473464976       -5.3697408324       -0.6962736795
 H        -0.4396353803       -4.0826857327       -0.3183221745
 H        -0.9332563278       -5.4132744611       -1.3266657701
 H        -2.7712954454       -6.7079787161       -0.0943239008
 H        -1.2189115693       -7.6112287100       -0.5545965020
 H        -1.8734465343       -7.9581862590        0.8272437928
 Na        1.9641840939       -0.6638942551        3.3824433607
