155

 C        -1.6329381117       -4.5669403335      -10.1380311445
 C        -1.1241520711       -3.1838991284       -9.7080102117
 C        -1.5992398281       -1.9048872922      -10.5119789318
 C        -1.5596565853       -0.7439140918       -9.5023206878
 C        -0.2157595141        0.0249071794       -9.0778107223
 C        -0.7521136835       -1.7230592545      -11.7750470035
 C        -3.1302284212       -2.0408245367      -10.8786577031
 O        -0.2400731493       -3.0276196941       -8.8640153538
 O        -2.6359610081       -0.5856896748       -8.9604807087
 C        -0.6553505814        1.1227727468       -8.0321292107
 C         0.5358233106        1.8619243205       -7.4658334097
 C         0.3929086160        2.6093660932       -6.1200152541
 C        -0.4561341959        2.0336602243       -4.9465555718
 C        -1.9543107176        1.8553614545       -5.0863964943
 O         1.5837705385        1.9491841273       -8.0533423229
 O         0.1370021617        1.6893339402       -3.9109818914
 C         1.9035639120        2.7487944322       -5.5160197958
 C        -0.0808836038        4.1487910204       -6.4074061484
 C        -2.6941862222        1.6306656273       -3.6551665803
 C        -2.8263698451        0.2486377602       -3.2699394306
 C        -3.1146533166       -0.0178134296       -1.7547428289
 C        -2.0039847013        0.8268350359       -0.9722349590
 C        -0.6416235121        0.2130995696       -0.6661183441
 C        -4.5066688337        0.7040984220       -1.3465698300
 C        -3.1277535304       -1.5797958050       -1.4839214945
 O        -2.8442670027       -0.7395944430       -4.0008937407
 O        -2.1787050568        2.0614024187       -0.8670363754
 C         0.3884032724        1.2838282744       -0.5598127648
 C         1.5929928355        0.8317275028        0.3320230034
 C         2.7233617415        1.8092603241        0.4859151327
 C         2.5736915791        2.3892094343        1.9826313095
 C         2.5166098942        3.8792747792        2.1415017019
 O         1.7058109090       -0.3181659183        0.7932142428
 O         2.6673048119        1.6534403225        2.9410015062
 C         4.0594605097        0.9837124473        0.5707613779
 C         2.9632928254        2.9028931584       -0.5475798410
 C         1.5501391250        4.4593438505        3.2838869993
 C         0.0979303645        4.3852961210        2.6729699102
 C        -1.0241113008        5.4381485261        3.1925248810
 C        -2.0421706938        4.6846677079        4.1383573631
 C        -1.5731445209        4.0216927391        5.4527526735
 C        -0.3613870616        6.4739342561        4.0973440939
 C        -1.7498726384        5.9624851752        1.9780474536
 O        -0.1698091986        3.3936773597        2.0124778253
 O        -3.2059491539        4.8644735910        3.9190220134
 C        -1.4818581486        2.5069470307        5.0883933520
 C        -1.4180552192        1.4860839240        6.1486361518
 C        -1.9669132091       -0.0147902908        5.7290479545
 C        -0.8070436365       -0.7524901302        5.0306806099
 C        -0.2358099447       -2.1304132542        5.5949909253
 O        -0.8744643220        1.6859199109        7.2202197966
 O        -0.3995767970       -0.4869727093        3.8756583854
 C        -2.4550412014       -0.5834709900        7.0904157610
 C        -3.0732015543       -0.0635225657        4.7393134011
 C         1.0476913237       -1.8662149164        6.4821554346
 C         2.3425882455       -1.9513517150        5.6350370587
 C         2.9390072068       -3.4440517802        5.4327412746
 C         2.4042673560       -3.8688248458        3.9653349847
 C         2.0779032832       -5.2957800277        3.6154451734
 C         4.4678347175       -3.1597014103        5.4278584765
 C         2.5081145990       -4.4536230413        6.5212349841
 O         2.8691560490       -0.9851352570        5.1613359999
 O         2.2169248407       -3.0719922745        3.0298660998
 C         1.4243507601       -5.3934411460        2.1518872512
 C         0.3301765360       -6.3885695248        1.9109467821
 C        -0.9105107097       -5.8563678443        1.0858938312
 C        -1.8395270386       -5.0507781288        2.1475643682
 C        -3.0726311032       -5.8147106509        2.6888857839
 O         0.2964295762       -7.5703830545        2.1508728064
 O        -1.5732752897       -3.8846407689        2.3871260871
 C        -0.5220843596       -4.8558481346        0.0456546904
 C        -1.5809282214       -7.2192131032        0.5805952913
 H        -1.1524776275       -4.9914823529      -10.9826941606
 H        -1.4973568952       -5.3213428121       -9.3654843899
 H        -2.7318047046       -4.5372215132      -10.4969199039
 H         0.2876426737       -0.7430170902       -8.4765872030
 H         0.5383345627        0.4159027487       -9.7307361936
 H        -0.9320970735       -2.6295826590      -12.4049014986
 H         0.2892319474       -1.8544922264      -11.5470381845
 H        -0.8715555616       -0.7883377441      -12.3571936471
 H        -3.6467507549       -1.1101491743      -11.2476024907
 H        -3.4691939682       -2.8420995646      -11.5518888124
 H        -3.7270117876       -2.3363058985      -10.0357871166
 H        -1.3725703944        1.7030006492       -8.5267211296
 H        -1.2515044327        0.6477282872       -7.2435377564
 H        -2.4775463438        2.5543804303       -5.7411338504
 H        -2.0832267313        0.8049415955       -5.5384520862
 H         1.8520747783        3.4807790431       -4.6971824124
 H         2.4636330526        3.1926112849       -6.2672365213
 H         2.2043750141        1.8052181969       -5.2248157918
 H         0.2304472651        4.7365802451       -5.5231026884
 H         0.3519097547        4.6082827944       -7.3364935811
 H        -1.1744192563        4.1196921866       -6.4899047124
 H        -3.7611348432        1.9193658609       -3.8544184059
 H        -2.3072961363        2.3632690948       -2.8953407423
 H        -0.7403454583       -0.3468989812        0.2188566095
 H        -0.2481516128       -0.3354300928       -1.4910601267
 H        -5.3595455267        0.0410388696       -1.7367184016
 H        -4.6024258699        1.7221898830       -1.8199341671
 H        -4.4781261069        0.8441797120       -0.3197349113
 H        -2.2202154083       -1.8285996869       -0.9375889235
 H        -3.9997754053       -1.9261272173       -0.8947712616
 H        -3.1091700743       -2.0969924993       -2.4044660054
 H         0.8708291328        1.5408985981       -1.4893574140
 H         0.0172356513        2.2913518529       -0.4035199790
 H         3.4891825216        4.0329157720        2.4695665053
 H         2.3949383393        4.3112721025        1.1679363346
 H         4.9509794101        1.5577145564        0.9904822287
 H         4.3172775185        0.5950395610       -0.3880431124
 H         3.8661544871        0.1372145289        1.2451351132
 H         3.8276964426        3.5075586481       -0.2681238148
 H         3.2024008112        2.4397699966       -1.5118527873
 H         2.1295939622        3.5841877796       -0.8352876530
 H         1.9300018071        5.3678152241        3.7615606668
 H         1.6379673325        3.6171110921        4.1156106908
 H        -0.5515160110        4.3303527994        5.7859877280
 H        -2.2782120794        4.1798850638        6.2901540180
 H         0.2582397121        6.0208852634        4.8926566461
 H        -1.1414546421        7.0138145688        4.6486222543
 H         0.1153933260        7.2118565676        3.4659252178
 H        -2.7670029091        6.1364724542        2.2401600824
 H        -1.3138641889        6.9120353845        1.5691563222
 H        -1.7538322165        5.2380266100        1.1753789495
 H        -2.2994842101        2.2792169436        4.3592664045
 H        -0.4608159694        2.4802453415        4.6112949128
 H        -1.0668831227       -2.6762601894        6.1266137406
 H        -0.0904877968       -2.7378938687        4.6956042394
 H        -3.2524304835        0.0080009478        7.5199642638
 H        -1.7359528425       -0.6808135296        7.9025828307
 H        -2.9772524528       -1.4917205411        7.0349214539
 H        -2.6047351755        0.1756602616        3.7566981121
 H        -3.4966384398       -1.0544587818        4.6304929917
 H        -3.8011185033        0.6054568144        5.0208801100
 H         1.0177305572       -2.4109561534        7.4079156791
 H         0.9152732988       -0.8198247141        6.8574042938
 H         3.0433553630       -5.7773420770        3.6584427671
 H         1.3773029030       -5.6606761056        4.3936299923
 H         5.0293813748       -4.0867698312        5.6441018693
 H         4.7747211648       -2.3005909516        5.9552438884
 H         4.8011810592       -2.9545155241        4.3710358104
 H         2.7378822921       -4.0234734130        7.5305454716
 H         1.4971334105       -4.6645675104        6.5418977162
 H         2.9981407701       -5.4348313161        6.5199338752
 H         1.2745908654       -4.3592118999        1.7868506190
 H         2.1810382816       -5.6243501007        1.3770061263
 H        -3.2117879936       -5.4996619862        3.6944859802
 H        -4.0261641312       -5.5391229366        2.1626683899
 H        -2.7591655876       -6.8561952785        2.5116148237
 H         0.0234993981       -5.4469096393       -0.7027938287
 H         0.0364065883       -3.9584312961        0.2904099776
 H        -1.3128767014       -4.4712149664       -0.5723163340
 H        -2.6550061242       -7.0572245323        0.2765099869
 H        -1.1922964140       -7.4357420649       -0.4294522919
 H        -1.6191608276       -7.9771008988        1.4045500885
 Na        1.7514193874       -0.5615578116        3.0670340177
