155

 C        -1.6610356786       -4.2467532309      -10.1467096059
 C        -0.7947523568       -2.9930768665       -9.9658345947
 C        -1.2866054170       -1.6530944155      -10.6477796370
 C        -1.4812744768       -0.5634638078       -9.4638737466
 C        -0.3104722548        0.4106719896       -9.2415504980
 C        -0.1657841298       -1.3354266008      -11.6820583980
 C        -2.6357776338       -1.8437759282      -11.2519169762
 O         0.2708094108       -2.9066955258       -9.3897657725
 O        -2.5620673120       -0.4764734095       -8.9408684768
 C        -0.4939336779        1.0328212270       -7.7996104408
 C         0.6862897794        1.8112046819       -7.3269465213
 C         0.4732445464        2.6835740455       -5.9935155667
 C        -0.4371009557        1.9986793686       -4.8523583684
 C        -1.9205207457        1.7027753321       -5.1664187025
 O         1.7681824460        1.8466706131       -7.8326453404
 O         0.0370385505        1.8144124279       -3.7276645717
 C         1.8329901552        2.9363574058       -5.3153860010
 C        -0.2226350292        3.9021933953       -6.5439037525
 C        -2.9082996189        1.5364286443       -3.9264782034
 C        -2.7219931244        0.1507293487       -3.3602518674
 C        -3.1732386361       -0.0378821258       -1.8806453788
 C        -2.3405675486        0.8807480743       -0.8764082842
 C        -0.9273633393        0.4051483741       -0.6789495672
 C        -4.5963361841        0.4367978031       -1.7281413639
 C        -2.9202449273       -1.4953402582       -1.5561245926
 O        -2.3100379968       -0.7751647254       -3.9797951931
 O        -2.7791765914        1.9625869979       -0.4294123053
 C         0.1601135015        1.4159893585       -0.5525918181
 C         1.4777224401        0.8809950662        0.1958296289
 C         2.5855306996        1.9357442577        0.3432503778
 C         2.5724194956        2.4661295946        1.8628274494
 C         2.5131811461        3.9761444789        2.1836594304
 O         1.4998207901       -0.2218035486        0.7355817774
 O         2.4712450167        1.6321812515        2.7251864739
 C         3.8558838991        1.0794942750        0.2036446669
 C         2.5857957497        3.0413145462       -0.7317520643
 C         1.5169001518        4.2752952476        3.3599166089
 C         0.0780948560        4.1207485828        2.8291062455
 C        -1.0795714019        5.2084934850        3.2483082250
 C        -2.0121950917        4.5518414871        4.2692153789
 C        -1.5116004067        3.6682445217        5.4021287406
 C        -0.5249004956        6.5136151502        3.9395603488
 C        -1.9903251746        5.6028284092        1.9516593484
 O        -0.2522101066        3.0411309560        2.3790915153
 O        -3.1748786829        4.6257384587        3.9791953471
 C        -1.1658330234        2.2269548639        5.0013308564
 C        -1.5050198100        1.2455396035        6.0725814533
 C        -2.1397058392       -0.2235266073        5.7165051448
 C        -0.9410742654       -0.9863337804        5.2172741914
 C        -0.4402561009       -2.3327254176        5.8318294302
 O        -1.2978334416        1.4215458119        7.2814601630
 O        -0.2965510293       -0.4063689595        4.3488281050
 C        -2.8764335153       -0.7773775503        6.9212756469
 C        -3.3416433989       -0.1591365599        4.6223877920
 C         0.8897967338       -2.3323919906        6.5670982653
 C         2.0641167033       -2.0240094909        5.6850968686
 C         3.0229657186       -3.2899789875        5.1513423446
 C         2.5553335007       -3.5444436689        3.7215696315
 C         2.1806390120       -4.9530583157        3.3496153637
 C         4.5148115597       -2.7672856960        5.1221330369
 C         2.8247749250       -4.4602101647        6.0595788896
 O         2.3180278007       -0.9034652622        5.3669402262
 O         2.4826568865       -2.6155573145        2.8701383966
 C         1.4352914154       -4.9208279235        1.9833797840
 C         0.5537605879       -6.1353128271        1.9681396818
 C        -0.8960220715       -5.9132163071        1.1805330325
 C        -1.6539295435       -5.3597029249        2.4486449627
 C        -2.8539286067       -6.1969544526        2.9783611488
 O         0.6682189829       -7.1845399132        2.5929956130
 O        -1.1612249046       -4.3986366662        3.0123819711
 C        -0.8814571086       -4.7793632330        0.1406887223
 C        -1.3150112161       -7.3303182845        0.6843156939
 H        -1.5884259684       -4.9625007413       -9.3934278118
 H        -2.7009990688       -3.9593384964      -10.2597969752
 H        -1.3942821747       -4.8316476017      -11.0794399831
 H         0.6567662282       -0.0369374803       -9.2435122197
 H        -0.2723141368        1.0751661713      -10.0469943946
 H        -0.1914487302       -2.1746167061      -12.4106351921
 H         0.8475820222       -1.1364585723      -11.3291825703
 H        -0.3776190061       -0.4152642698      -12.2424274126
 H        -3.0242428589       -0.9049427479      -11.5699596512
 H        -2.7736592890       -2.4770828709      -12.0339797470
 H        -3.4801402907       -2.0176079858      -10.5317168785
 H        -1.2530847843        1.7482178757       -7.9084275730
 H        -0.9257828902        0.2000031459       -7.2439360315
 H        -2.2837262996        2.5525111141       -5.7802412869
 H        -2.0880696393        0.6983854459       -5.7275547425
 H         1.6407426022        3.5289990026       -4.3870396832
 H         2.3158307465        3.5298607596       -6.1407484308
 H         2.3855959973        2.0456706962       -4.9942887991
 H        -0.7151074887        4.3493475479       -5.6644541011
 H         0.4361075656        4.6648863723       -6.9652360383
 H        -1.0620518612        3.6037836695       -7.1515483127
 H        -3.8817229918        1.5977025835       -4.3973453174
 H        -2.7206851139        2.4053985824       -3.2524921873
 H        -0.9231308824       -0.2241817194        0.2570893071
 H        -0.6478355426       -0.2452186809       -1.5380961607
 H        -5.2181471619        0.2380805299       -2.7089665591
 H        -4.5275171336        1.5575205361       -1.6438640399
 H        -5.0309251795        0.0604731414       -0.8447299083
 H        -2.5430076377       -2.0851503906       -2.3703106593
 H        -2.2458846741       -1.6719507418       -0.7058202354
 H        -3.8749081115       -1.8954097220       -1.3471256053
 H         0.5168785397        1.8770378743       -1.4444513802
 H        -0.1702130144        2.3587944296       -0.1291099189
 H         3.5137863952        4.3318187664        2.2799745451
 H         2.0449207351        4.4793189261        1.3121956439
 H         4.7894185706        1.7984505315        0.2408845647
 H         3.9699915801        0.5575392389       -0.7118818971
 H         3.8821711562        0.4963829264        1.1320572945
 H         3.5552414386        3.5358683030       -0.6566755601
 H         2.7399919587        2.7185444329       -1.7474202953
 H         1.7650378927        3.7272226054       -0.7042656814
 H         1.8137424138        5.3412722149        3.7852868670
 H         1.6318928955        3.6300993215        4.2797863391
 H        -0.6716533876        4.1169776462        5.9252380384
 H        -2.3140396030        3.6804424071        6.1089949765
 H        -0.1267233520        6.2335117620        4.9492897122
 H        -1.2939094145        7.2962018863        3.9424981535
 H         0.3337547722        6.7920889612        3.4535994644
 H        -2.6483228545        6.4172494665        2.0361714025
 H        -1.3512346952        5.8201382350        1.0780394585
 H        -2.5219121917        4.7169423343        1.7115812440
 H        -1.7265725523        1.9770091309        4.1221853042
 H        -0.0707260270        2.1253096126        4.7665387528
 H        -1.1726626668       -2.5038670309        6.6041527952
 H        -0.5438160815       -3.1539464360        5.1333271527
 H        -3.7297577652       -0.1471025155        7.2035901253
 H        -2.2781966021       -0.8256460785        7.8405229886
 H        -3.3303829869       -1.7398476914        6.8422800098
 H        -3.0617096091        0.0454877648        3.5722062293
 H        -3.8880749470       -1.1181749384        4.7258967200
 H        -3.8954898053        0.7258529265        4.8671739024
 H         0.8968714095       -3.2751179848        7.0579550134
 H         0.8194559306       -1.5764498281        7.3792023016
 H         3.0153692059       -5.6193269878        3.2531747959
 H         1.3940322959       -5.4236022180        4.0233760209
 H         4.9974913818       -2.9238606518        4.1621685255
 H         5.0947834904       -3.1453256079        5.9180774539
 H         4.4378082249       -1.6835502937        5.2233185945
 H         2.9795753831       -4.1178990281        7.0876988798
 H         1.9036608344       -5.0104905170        5.9263803675
 H         3.5555529128       -5.2669566655        5.9910777929
 H         0.8137415255       -4.0341717398        1.8245018992
 H         2.2010537447       -4.8517555974        1.2013003536
 H        -3.4691053075       -5.5690756164        3.5968283248
 H        -3.3492721566       -6.6360545323        2.0950570613
 H        -2.3775656597       -7.0008106480        3.5558188374
 H        -0.0590645532       -4.8462854470       -0.5112194857
 H        -0.6820860358       -3.8415716259        0.6706862437
 H        -1.7394700294       -4.6646569024       -0.5477195074
 H        -2.3011098380       -7.3918402533        0.2417179216
 H        -0.6085821647       -7.8620803947        0.0655619782
 H        -1.3458459027       -7.7821279259        1.6644025251
 Na        1.8566464083       -0.4352565478        3.1574132214
