155

 C        -0.2964389782       -2.7609203304      -10.2011962163
 C         0.7050041020       -2.0406917691      -11.1063927522
 C         0.6978020713       -0.4582866061      -11.2008488191
 C        -0.2261553585        0.0725588763      -10.0856282071
 C         0.6012849545        0.4078230291       -8.7028674812
 C         2.1757523425       -0.0914592000      -11.0475157242
 C         0.2318560668       -0.1011427253      -12.6394106980
 O         1.5061025453       -2.6265250106      -11.7823661930
 O        -1.4110826616        0.3431599180      -10.2414803460
 C        -0.3046309341        0.6122518089       -7.4410663763
 C         0.3407378435        1.3013387334       -6.2104012273
 C         0.1583691842        2.8626445765       -5.8376124622
 C        -1.0750972242        2.5544105726       -4.7035735164
 C        -2.5392388774        2.4546449295       -5.0725566084
 O         0.9500286696        0.7330393815       -5.3596450723
 O        -0.6663180564        2.3648359001       -3.5580998975
 C         1.5133740682        3.4467500477       -5.3509315138
 C        -0.2635577109        3.7809290309       -7.0131044510
 C        -3.4015382331        1.8549250032       -3.9920175101
 C        -3.1481021578        0.3783924624       -3.6937372470
 C        -3.7207572910       -0.2059336082       -2.3597547162
 C        -3.1783926506        0.6551104175       -1.1877355487
 C        -1.7889349982        0.2686106219       -0.6070417941
 C        -5.3564837707       -0.0734173797       -2.5102402539
 C        -3.3563562008       -1.6701099452       -2.1740344029
 O        -2.5148765739       -0.3625393634       -4.4547663072
 O        -3.8340145979        1.5560833747       -0.7361485262
 C        -0.9579745296        1.5311525359       -0.4299655770
 C         0.3173436797        1.3199505359        0.4136938442
 C         1.5371588045        2.1415215288        0.2858592580
 C         1.5808766262        2.9004834020        1.6926993586
 C         1.8494220500        4.4958670790        1.7685160512
 O         0.3359867239        0.3298351139        1.1093129926
 O         1.5679680871        2.1849526295        2.6847580326
 C         2.8241808660        1.2914365397        0.2993399792
 C         1.4501463031        3.2223386689       -0.8386198210
 C         0.9472245241        5.1736248244        2.9308663892
 C        -0.4695146726        4.5363520314        2.8258230328
 C        -1.5910020266        4.7971281077        3.9027557919
 C        -2.0643277657        3.3171479265        4.4050996802
 C        -0.9365056450        2.6661974477        5.3553022637
 C        -1.1760946623        5.7155790231        5.0609345422
 C        -2.8604846379        5.4767374598        3.2523132964
 O        -0.6965006217        3.9008466711        1.7976294100
 O        -3.1624177229        2.9479180797        4.3152640637
 C        -0.8325867655        1.1463844374        5.2292062598
 C        -1.7837020521        0.4032645620        6.2063531816
 C        -2.0920480059       -1.0528040278        5.6435816728
 C        -0.6835073133       -1.5269229154        5.4365467038
 C         0.0488471731       -2.4453633872        6.5257543210
 O        -2.2680322445        0.8583135078        7.1971150961
 O        -0.1019880863       -1.4192943561        4.3453354423
 C        -2.9030309041       -1.8524942635        6.7972767213
 C        -2.9725381359       -0.9104637286        4.3679647007
 C         1.4883546604       -2.0045082263        6.8440523796
 C         2.4377426908       -1.4555853316        5.7151485184
 C         3.4684976733       -2.3955748302        4.9250019871
 C         2.4539881513       -2.8976790882        3.6175231846
 C         2.2088802796       -4.3865417929        3.5427382667
 C         4.6125659986       -1.5604023799        4.3450720901
 C         3.8163632765       -3.6612531240        5.7413293264
 O         2.3587200218       -0.2907475756        5.3117447051
 O         2.1314788435       -2.0995216944        2.7394849517
 C         1.1285495533       -4.5783063465        2.4312333930
 C         1.0150140389       -6.1790707108        2.1289792907
 C        -0.3375982927       -6.8230973137        1.5844322285
 C        -1.1530644432       -7.1851260970        2.9933581520
 C        -0.9821914626       -8.5303861831        3.7328087750
 O         1.9637867357       -6.8521618846        2.4656245301
 O        -1.6202497289       -6.2428312510        3.5210698980
 C        -1.1466644996       -5.8191062804        0.7139476484
 C         0.0591634315       -8.1390497251        0.8654708669
 H        -0.1833416263       -3.8748849605      -10.2317861667
 H        -0.1670180588       -2.5479999573       -9.1316722335
 H        -1.2849329534       -2.5829036440      -10.5230032602
 H         1.3986521179       -0.3327863920       -8.5044694275
 H         1.0226258519        1.3894974299       -9.0501627065
 H         2.6310518228       -0.5480083078      -11.9582903370
 H         2.6062345672       -0.5143969456      -10.1190047059
 H         2.3132165325        1.0163237453      -11.0008114181
 H         0.0651179874        0.9712738194      -12.6886267964
 H         0.9860745266       -0.3398138925      -13.3785514169
 H        -0.7433584308       -0.5345566164      -12.9879491576
 H        -1.1288719637        1.1928942453       -7.8394016434
 H        -0.5987421503       -0.4678343141       -7.0960811362
 H        -2.9541640297        3.3849237601       -5.4894474761
 H        -2.5968173746        1.7610767723       -5.8672843039
 H         1.5843326975        4.4450724981       -5.0940232788
 H         2.1141401760        3.2447327418       -6.2214005710
 H         2.0058222042        2.9332981153       -4.5206164566
 H        -0.1303998736        4.8625159394       -6.8061155364
 H         0.2957513898        3.5940609032       -7.9582554919
 H        -1.2921196685        3.6730516716       -7.3713304911
 H        -4.3837868172        2.0764897301       -4.3935977062
 H        -3.3729201313        2.4177339922       -3.1189294706
 H        -2.0622127254       -0.2241099825        0.3712279304
 H        -1.2131080792       -0.3720747746       -1.3806896204
 H        -5.7414328606       -0.4649109962       -3.3569232777
 H        -5.7728159213        0.8935841533       -2.5206160838
 H        -5.8131372020       -0.6588584812       -1.6334152601
 H        -4.1927703805       -2.3508921464       -2.3171321305
 H        -2.6187038197       -1.9697975177       -2.9273411446
 H        -2.9494809215       -1.8139143361       -1.2083689961
 H        -0.6909279636        1.8723235553       -1.4316845744
 H        -1.5869210821        2.2614043603        0.1505123175
 H         2.9331694492        4.7206489139        2.0368919412
 H         1.7304144867        4.9233407484        0.7114261825
 H         3.6966636233        1.9370235783        0.5181067102
 H         2.9442956042        0.9319236768       -0.6796382782
 H         2.7132247637        0.5615516642        1.0494601868
 H         2.3584655283        3.8549225039       -0.7418927281
 H         1.4674372746        2.7163577723       -1.8226336341
 H         0.5517902516        3.7982863311       -0.8393873636
 H         0.8412692530        6.1751185445        2.9392561450
 H         1.3783404585        5.0306242390        3.8578579732
 H         0.0634570945        3.0985520678        5.1687123755
 H        -1.3184053073        3.0763804992        6.3463276765
 H        -0.1222799566        5.5541949984        5.4489871551
 H        -2.0436497054        5.6545789312        5.7960575705
 H        -1.1228481848        6.6823931162        4.7103692384
 H        -3.6033003900        5.6948807376        3.9745194166
 H        -2.5398551018        6.5085005760        2.9512732685
 H        -3.2085665653        4.9364816336        2.3816937526
 H        -1.0077176153        0.8263786255        4.2108192296
 H         0.1132059313        0.8615601722        5.6006693070
 H        -0.5235846000       -2.4838104456        7.4452425435
 H         0.0058201640       -3.4331285566        6.0688949408
 H        -3.7724475994       -1.2364240065        7.0452407714
 H        -2.2371552659       -1.9106427019        7.6555151115
 H        -3.2039207554       -2.8206175724        6.5108957209
 H        -2.6456131225       -0.1381925448        3.8047612966
 H        -2.9565904907       -1.7853334411        3.7778720468
 H        -3.9761687789       -0.5202104728        4.6162735843
 H         1.9390302683       -2.8506746179        7.3472929162
 H         1.3469300250       -1.3017919821        7.6386148688
 H         3.1056247963       -4.9875658213        3.1406624727
 H         1.8506414737       -4.6888781392        4.5037795610
 H         4.3622525822       -1.2301952711        3.3159481131
 H         5.5660695304       -2.1146434235        4.3430205397
 H         4.5981336540       -0.6448182744        4.9437291047
 H         4.4240424615       -3.2947078975        6.5168524475
 H         2.8850208586       -4.1961898898        6.1752090428
 H         4.3262109130       -4.3025788366        5.0876591984
 H         0.0938792533       -4.2003499518        2.6846503973
 H         1.3006072410       -3.9443507703        1.5981812284
 H        -1.1497404906       -8.3609971413        4.8227440651
 H        -1.7944368199       -9.1826721049        3.3730060865
 H        -0.0197651081       -8.9572161840        3.5001551272
 H        -0.4890226870       -5.5339515132       -0.0512780818
 H        -1.3235695996       -4.9249487056        1.3817289137
 H        -2.1331117611       -6.2579491391        0.4379994088
 H        -0.9500186658       -8.5712042528        0.6235205200
 H         0.6205353756       -8.0481292690       -0.1211700019
 H         0.6260546836       -8.8102228958        1.5479521937
 Na        1.3163569252        0.0010214097        3.2590798094
