155

 C        -0.1308074254       -2.5716820428      -10.5581862981
 C         1.0704754171       -1.7902504247      -11.2264088916
 C         1.1683083164       -0.2127345087      -11.0382541612
 C         0.2053197884        0.3565330454       -9.9803851030
 C         0.7276023441        0.7640173545       -8.6206606427
 C         2.7228035645        0.0269142651      -10.7089331784
 C         0.8081877596        0.4365145485      -12.4010696313
 O         1.8706495713       -2.3913999788      -11.9123110589
 O        -1.0078296506        0.2933448638      -10.1708193149
 C        -0.3118907841        0.4520706854       -7.5190268973
 C         0.2340724519        1.0063372011       -6.1855762038
 C        -0.0840601696        2.5772736062       -5.7421931276
 C        -1.2328871371        2.6743804374       -4.7329439284
 C        -2.7135098445        2.5353358485       -5.2796445923
 O         1.0026890234        0.3285818992       -5.5829525980
 O        -1.1404445252        3.1160755662       -3.6024987236
 C         1.3095884377        2.9769442798       -5.1677780534
 C        -0.3374787898        3.5614135575       -6.8774701402
 C        -3.6139191366        1.9992075734       -4.1811642498
 C        -3.2415068269        0.5329671115       -3.8451810838
 C        -4.0466279912       -0.1128805450       -2.6899685388
 C        -3.3183143884        0.5907405374       -1.2963039297
 C        -1.8156282477        0.1547730844       -1.0348526162
 C        -5.4965574765        0.3771758221       -2.7652479090
 C        -3.7970223563       -1.6866954409       -2.7577997434
 O        -2.3310398934       -0.0182566312       -4.4580780873
 O        -3.9404314425        1.3899549405       -0.7056811317
 C        -1.1387331141        1.4839182282       -0.6269535196
 C         0.1611353538        1.2961394909        0.2556288313
 C         1.2305569811        2.4097494520        0.2442559277
 C         1.3803716764        3.0402827485        1.6830574795
 C         1.3686706338        4.5826021946        1.7340060553
 O         0.1899928109        0.3650172363        1.0515650787
 O         1.6594942510        2.3354350074        2.6656107780
 C         2.5795674197        1.5604867640        0.1152362452
 C         1.0364980465        3.4451258026       -0.8891310047
 C         0.5636736712        4.9331734618        2.9726544223
 C        -0.9056353357        4.5320790785        2.8716848809
 C        -1.8233020263        4.7049001890        4.1293222702
 C        -1.8688213455        3.2491498723        4.6739589658
 C        -1.1541306875        2.7443088335        5.9996763799
 C        -1.0993843008        5.7737891915        5.0737435474
 C        -3.2657306552        5.2534667559        3.5702483475
 O        -1.2993637147        3.9808094325        1.8536288684
 O        -2.4640805579        2.3754191304        4.0665128999
 C        -0.8058188173        1.2512305652        5.7311096111
 C        -1.6690550475        0.2297917232        6.4393987984
 C        -1.9313402514       -1.1606503890        5.7551123236
 C        -0.5300994420       -1.7068345154        5.5471362755
 C         0.2934079497       -2.1789787927        6.8383223395
 O        -2.1506975855        0.5700743177        7.5437237222
 O         0.0220481427       -1.7872405875        4.4296702727
 C        -2.8100680879       -1.9814679366        6.7513215485
 C        -2.5732357830       -0.8210710047        4.3494923469
 C         1.5270187346       -1.2237007656        6.8845210423
 C         2.1942276223       -1.0997371150        5.5202140431
 C         3.0677985056       -2.3284018030        4.9773221428
 C         2.4987691484       -3.0007080460        3.7345719610
 C         2.4648420109       -4.5570022965        3.4968201249
 C         4.4712178153       -1.6245155044        4.4361922503
 C         3.4368354702       -3.3234161585        6.0759692461
 O         2.2107316606        0.0063510282        4.9702218525
 O         2.0838785373       -2.1782584813        2.8951133909
 C         1.1447432888       -4.9658049440        2.6747087528
 C         1.2398747808       -6.3844137379        2.0753451466
 C        -0.0639716236       -7.1305197823        1.7193462494
 C        -0.8659386276       -7.5160994173        3.0762511343
 C        -0.6365413985       -8.9898719592        3.6993502359
 O         2.3007971887       -6.9516220887        2.0369166345
 O        -1.6556663474       -6.7351576410        3.5406880065
 C        -0.8737902595       -6.0860947814        0.8493325075
 C         0.1863839094       -8.3612382930        0.8802922573
 H         0.1882688118       -3.5557168447      -10.0197226277
 H        -0.7069775611       -1.9074635595       -9.8638070919
 H        -0.8454752679       -2.8936710810      -11.2655888404
 H         1.6307754027        0.1395595113       -8.4458420931
 H         1.0111863503        1.8628782034       -8.5696673345
 H         3.1698573954       -0.4415920764      -11.5570403465
 H         3.0735641244       -0.5909416184       -9.8716572767
 H         2.9411479718        1.0811091585      -10.6369974121
 H         1.2372514994        1.4498900305      -12.3997523117
 H         1.3647597472       -0.0704487355      -13.2793538188
 H        -0.2083425268        0.3176888959      -12.6123846456
 H        -1.3585415605        0.8285965390       -7.7316614424
 H        -0.4004422210       -0.7136987987       -7.4357524974
 H        -3.0695328560        3.4594653836       -5.7732563436
 H        -2.6915519694        1.7442833046       -5.9907976675
 H         1.3363104171        3.9165133830       -4.6575617875
 H         2.0092789795        3.0503436097       -5.9333125739
 H         1.7538980145        2.2036233143       -4.5571960245
 H        -0.7930211391        4.4497981238       -6.4051225700
 H         0.4407630819        3.9852833572       -7.5296229940
 H        -1.1179703246        3.1441656042       -7.5324919584
 H        -4.6535595220        2.0743795413       -4.5280369651
 H        -3.4595001242        2.6165316155       -3.3413634492
 H        -1.8093579474       -0.5045426187       -0.1295891209
 H        -1.1702842309       -0.2287624143       -1.8514435661
 H        -6.0850752964        0.0841650397       -3.5659845716
 H        -5.5224601993        1.4324509124       -2.7950940623
 H        -6.0462570340        0.0815271407       -1.8475194897
 H        -3.8051495817       -1.8571298134       -3.8231779342
 H        -2.8555193257       -2.0710009866       -2.3216737809
 H        -4.5926232070       -2.1986223855       -2.2614225235
 H        -0.7935701437        1.9967428213       -1.4904297346
 H        -1.8723827391        1.9448260407        0.0569085456
 H         2.4288430432        4.9841831288        1.7100079686
 H         0.7913676745        5.0440939817        0.8629240303
 H         3.4034331719        2.2240462057        0.0079608830
 H         2.4293172119        0.7913546179       -0.6584432126
 H         2.7193088688        1.0378970668        1.0564276459
 H         1.6972126174        4.2916259066       -0.6767803418
 H         1.1787034677        3.0615141574       -1.8956947798
 H         0.1158276831        3.9040229788       -0.8244551369
 H         0.6526919045        5.9859652135        3.1517630972
 H         0.8783675124        4.5360087313        3.8370109581
 H        -0.2696973406        3.3535031974        6.3259353471
 H        -1.9047347824        2.8195201395        6.8797976471
 H        -0.1854472414        5.4917382703        5.6658281204
 H        -1.8265414803        6.3280069221        5.7502600726
 H        -0.7799113464        6.5912023622        4.4725412354
 H        -3.6678772962        6.1066178103        4.0679820269
 H        -3.1470426198        5.5487004704        2.5159698581
 H        -3.9529612946        4.4311796700        3.6358140418
 H        -1.0423397589        1.0066900892        4.7107282235
 H         0.1810653928        1.0725455012        6.0470235392
 H        -0.2998398478       -1.9685221647        7.6858857503
 H         0.5717591788       -3.2503074205        6.7702161532
 H        -3.8029534332       -1.5390502183        6.6132371374
 H        -2.4437605365       -1.8228689528        7.7707141755
 H        -2.7487929772       -3.0294695159        6.5279230536
 H        -2.0151794537       -0.6122627280        3.4892341755
 H        -3.1695133814       -1.6816577267        4.1166603481
 H        -3.3095463689        0.0078206724        4.4985800149
 H         2.2206299472       -1.6125019106        7.6380468218
 H         1.0386732487       -0.2875620585        7.1538465128
 H         3.3362567145       -4.6854210902        2.7893223058
 H         2.4821415024       -5.1447694200        4.3961391035
 H         4.1802074149       -0.5766623947        4.2968837023
 H         4.8400585544       -1.9894768236        3.4367453143
 H         5.2560428224       -1.7052927173        5.1459920957
 H         4.0303859219       -2.8363544336        6.7911835691
 H         2.4830599538       -3.6411112094        6.5508889919
 H         3.9473269027       -4.1197526954        5.6185182702
 H         0.1601440787       -4.8513253388        3.2719335470
 H         1.0169158260       -4.2802361761        1.8581462058
 H        -1.4489334864       -9.0990804217        4.4766938807
 H        -0.7722740608       -9.7095164070        2.8742390249
 H         0.3084709008       -9.1426571833        4.2128355384
 H        -0.2053119840       -5.7404526337        0.1586797537
 H        -1.3156371106       -5.3185229707        1.5113809025
 H        -1.7580447631       -6.5614457821        0.4083736777
 H        -0.8163647742       -8.8495634214        0.7937092642
 H         0.8423659689       -8.2424975026        0.0030373775
 H         0.9306944249       -9.0383665074        1.3424486685
 Na        1.4179906789       -0.0655435574        2.8304732821
