155

 C         0.1367641336       -2.3092972026      -11.1487205793
 C         1.4933485660       -1.6267769884      -11.4804312225
 C         1.5587181123       -0.1240765620      -10.9688247587
 C         0.5215015256        0.2137397786       -9.9171359186
 C         0.8815468824        0.3775025797       -8.4101872114
 C         3.0277129852        0.2403969280      -10.5096529798
 C         1.1959543136        0.6430865577      -12.3038205440
 O         2.4504093553       -2.1554794861      -12.0287124199
 O        -0.5686599429        0.6296261012      -10.2465574499
 C        -0.2575174426        0.6609747104       -7.4747032857
 C         0.1617538753        1.1272460858       -6.0918956127
 C         0.0118023572        2.6798424141       -5.6751294355
 C        -1.3110548565        2.7805601276       -4.8684774942
 C        -2.7552835151        2.6533082312       -5.5103650127
 O         0.4922498908        0.3436947576       -5.2386300644
 O        -1.2844372847        3.0170407327       -3.6640218931
 C         1.2011935311        3.1282587361       -4.8595015645
 C         0.1281310696        3.5950068393       -6.9541391942
 C        -3.8609906312        2.0684473788       -4.5702802948
 C        -3.3805608203        0.8013162043       -3.8793181043
 C        -4.2129795197        0.0271961861       -2.8233333908
 C        -3.6629281399        0.5010308488       -1.4351832543
 C        -2.1381955853        0.2729534176       -1.2867090065
 C        -5.7280354694        0.3601274657       -2.9025707074
 C        -3.9564388223       -1.4891199296       -2.9734060818
 O        -2.3979608724        0.2165468645       -4.2612086743
 O        -4.3681190213        1.1405694335       -0.7038529798
 C        -1.3683637628        1.6526726833       -0.8598880428
 C        -0.0989864398        1.3948614627       -0.0161144622
 C         1.0473056189        2.4019334492        0.0062114449
 C         1.1128411320        2.9442468519        1.4907885385
 C         1.0629426769        4.4320655776        1.8006953777
 O        -0.0161569415        0.3888979886        0.6848953976
 O         1.2378906966        2.1532260504        2.4102526004
 C         2.2790110869        1.5112193632       -0.3572822432
 C         0.9183054410        3.5404552002       -0.9889328425
 C         0.3557550590        4.8957320059        3.0861990761
 C        -1.2394683528        4.6483703497        3.0021120655
 C        -2.1759576530        4.5331366423        4.3369529099
 C        -1.9731832978        3.1076794980        4.7937063843
 C        -1.1205648180        2.8680103141        6.0813931739
 C        -1.8454504458        5.4148121906        5.5075147382
 C        -3.5747280966        4.9016358207        3.7035568807
 O        -1.6420013804        4.3182247955        1.8945277563
 O        -2.4036422656        2.1666200321        4.1127219762
 C        -0.6773415603        1.4005064865        6.2535081355
 C        -1.7174125584        0.3261610962        6.7514720098
 C        -1.7931479388       -0.9390797446        5.9138829698
 C        -0.4366242368       -1.7078028026        5.7851855497
 C         0.3892841034       -1.8443392264        7.0470019461
 O        -2.3180852562        0.4144385447        7.8148529501
 O        -0.0343191144       -1.9677158622        4.6606334029
 C        -2.8312829988       -1.9947094346        6.6580545422
 C        -2.2649677881       -0.6779556226        4.5185545054
 C         1.8413958406       -1.2721791741        6.8765396351
 C         2.3027970710       -1.1888001196        5.4610567974
 C         3.2430690189       -2.4549698151        4.9810024465
 C         2.3579480328       -3.0566889536        3.7971350804
 C         2.1655088000       -4.5677040064        3.7659082668
 C         4.4859605890       -1.7951493944        4.3139427234
 C         3.6203441134       -3.4818628720        6.1113736297
 O         2.2619889975       -0.1979869704        4.7673032480
 O         2.2725647877       -2.3731236519        2.7869566544
 C         0.9878495857       -5.0229994725        2.8455874527
 C         1.3438470162       -6.3752833247        2.3515696047
 C         0.2409870830       -7.2589570080        1.7080741450
 C        -0.4871297792       -7.7452416249        3.0667504389
 C        -0.1218022588       -9.1624406709        3.5507131536
 O         2.5372726968       -6.6770101498        2.2629447873
 O        -1.1828765571       -6.9596466455        3.7490797348
 C        -0.8121677506       -6.4068426765        0.9000709969
 C         0.7872755135       -8.4398724405        0.7998119890
 H         0.1575573905       -3.3126829983      -11.6293982375
 H        -0.1080977096       -2.3503759786      -10.0479409723
 H        -0.7479858595       -1.8020505788      -11.4874263181
 H         1.4874672836       -0.4557407746       -8.1156463256
 H         1.5959542875        1.2181159531       -8.2918815938
 H         3.7042851058       -0.1441264813      -11.2062666871
 H         3.1081757945       -0.2875381215       -9.5571446742
 H         3.1333593322        1.2861098245      -10.3762723514
 H         1.4748309282        1.7210722759      -12.1157654769
 H         1.8975507431        0.2343802616      -13.1381949716
 H         0.1654976523        0.5722686061      -12.5509204337
 H        -0.9793843419        1.4437205327       -7.8758720224
 H        -0.9490031864       -0.2062812572       -7.3817300398
 H        -3.0141521813        3.7071995931       -5.7931951781
 H        -2.7227559751        2.0073898885       -6.3882943939
 H         1.3293941345        4.1838983512       -4.4550526899
 H         2.0008478629        3.0849589527       -5.6062079661
 H         1.5651537180        2.3768805914       -4.1477987263
 H         0.2978894810        4.6100949622       -6.5845746774
 H         1.0836414802        3.3728338732       -7.3974073846
 H        -0.6640260519        3.7486542246       -7.6810019467
 H        -4.7099799270        1.8331822721       -5.2725083785
 H        -4.1397383429        2.8184741667       -3.8230304235
 H        -1.9873522170       -0.4895334638       -0.5044102975
 H        -1.5789222631       -0.0297943874       -2.1314382630
 H        -6.2359959287        0.6144223531       -3.8700179966
 H        -5.8910592822        1.2097074625       -2.2064931550
 H        -6.2980884287       -0.3891843325       -2.4992292496
 H        -4.3827738783       -1.8128322785       -3.9185466326
 H        -2.8564694524       -1.6150035039       -2.8720577374
 H        -4.5039740316       -2.0202944346       -2.1757717716
 H        -0.9243289228        2.0966909169       -1.7151341801
 H        -2.1161538705        2.1282723250       -0.2660180797
 H         2.1437042736        4.6886248734        1.9479053329
 H         0.7143846576        4.9310671850        0.9026825528
 H         3.2299991494        1.9245708471       -0.1254107281
 H         2.1245672214        1.1960475056       -1.4642995832
 H         2.0883362076        0.5221189740        0.1342951400
 H         1.8246272444        4.2141669282       -0.9517486562
 H         1.0148373871        3.1911035836       -2.0215537154
 H         0.0344119377        4.1247238450       -0.8939762668
 H         0.4504128962        5.9779917062        3.1267783916
 H         0.8540764415        4.4795362402        3.9080768374
 H        -0.2437183400        3.4879021928        5.9896354785
 H        -1.7030355273        3.3051145490        6.9174814299
 H        -0.8274663977        5.5269532990        5.7905264179
 H        -2.2990714105        5.1755365193        6.4397296904
 H        -2.2573008408        6.4693092331        5.3361152929
 H        -4.3932649865        4.2784547036        4.0843850063
 H        -3.7305088430        5.9670369910        3.9343830649
 H        -3.5594385116        4.6417376246        2.6410332280
 H        -0.3198840357        1.1234173038        5.2434995983
 H         0.1278826264        1.3537804681        7.0122339801
 H        -0.1244956538       -1.3920610797        7.8440827660
 H         0.4639755901       -2.9692702780        7.2327788065
 H        -3.6410196287       -1.3623204370        7.0440949381
 H        -2.3065005527       -2.4171594053        7.5156324232
 H        -3.1455233646       -2.7436751053        5.9053234291
 H        -1.6995931891        0.1749502498        4.0393432060
 H        -2.1253113795       -1.5375109046        3.8290256966
 H        -3.3474146093       -0.5420913439        4.4745892647
 H         2.5798223196       -1.7850416922        7.5398546515
 H         1.7203831484       -0.2163704371        7.2666177985
 H         3.0929452660       -4.9083060477        3.2503949087
 H         2.1238719447       -5.0139892581        4.7514728962
 H         4.1732649295       -1.3447939532        3.3596076167
 H         5.3089659184       -2.5245809214        4.1301676170
 H         4.9540906654       -1.0942013073        4.9027331180
 H         4.4603095692       -3.1340198677        6.7091711673
 H         2.7418661949       -3.8027224761        6.6618886328
 H         4.0389275510       -4.3329653909        5.5428848381
 H        -0.0080849092       -5.0857791614        3.3873550304
 H         0.9361090928       -4.3068342130        2.0570554815
 H        -0.3695011554       -9.1374988605        4.6014391229
 H        -0.6330659839       -9.9006710791        2.9674503341
 H         0.9253873428       -9.3728676068        3.3766526961
 H        -0.3516600777       -6.0520586975        0.0263159169
 H        -1.2865727227       -5.6448246533        1.5258110050
 H        -1.5307696850       -7.1196727814        0.4717868482
 H         0.0411978363       -9.2006523350        0.4885688600
 H         1.1056421810       -7.9623568685       -0.1667396984
 H         1.6249096214       -9.0648369583        1.1747470603
 Na        1.4132793939       -0.1412786154        2.5064760872
