155

 C         0.3255329346       -2.3160161598      -11.5199423400
 C         1.6144143283       -1.5200706370      -11.4022321223
 C         1.7624345053       -0.0050131583      -10.8717570704
 C         0.6686972572        0.3475636636       -9.7888689612
 C         0.9249692075        0.1642763922       -8.3263548249
 C         3.2131301607        0.2322124682      -10.4821440683
 C         1.4033804538        0.8306860111      -12.1864451661
 O         2.6125804448       -2.0016682193      -11.8897736592
 O        -0.4391904398        0.7490329696      -10.1391584123
 C        -0.3103796029        0.6651562931       -7.5026303346
 C         0.1075294685        1.1889839079       -6.0948589748
 C        -0.0429159950        2.8036489850       -5.7419913241
 C        -1.3688224640        2.8380101771       -4.9073526425
 C        -2.6112730579        2.6514146400       -5.7146820502
 O         0.3677157359        0.4045616697       -5.2291080487
 O        -1.2918877654        3.0438783459       -3.7209236108
 C         1.1718141020        2.9342253319       -4.8293489140
 C        -0.1238740977        3.7007436954       -6.9129531766
 C        -3.7123754030        2.1900808023       -4.6899912916
 C        -3.3630546969        0.8015181232       -4.0849291914
 C        -4.2669066797        0.1281892119       -3.0452672358
 C        -3.7871358141        0.5671125831       -1.5017697370
 C        -2.3922478436        0.3334689007       -1.0315287068
 C        -5.7212456078        0.4645647813       -3.1433861267
 C        -4.1050666003       -1.4272193922       -3.0166091889
 O        -2.3052339867        0.2781841031       -4.4078563832
 O        -4.5079559541        1.1008223083       -0.7013419947
 C        -1.5559665933        1.6402097847       -0.7983359829
 C        -0.2580856770        1.3694313582       -0.0102632901
 C         0.8932750804        2.4359943712        0.1076486244
 C         0.9839711028        2.8964149445        1.5435092075
 C         0.9396843157        4.3784944325        1.8583002249
 O        -0.1094175371        0.2757191415        0.4940227409
 O         1.2588379787        2.1696757367        2.4936649286
 C         2.2326750674        1.6836927773       -0.2582689140
 C         0.7628361568        3.5767216747       -0.8452100900
 C         0.1872190081        4.7048411818        3.1974469386
 C        -1.3182590418        4.6517389025        2.9909895234
 C        -2.2354461499        4.4192702846        4.3210598297
 C        -1.9995512797        2.9856430447        4.8020434329
 C        -1.1011566161        2.7384563900        6.0959755474
 C        -1.8260902055        5.7148632600        5.0407946073
 C        -3.7556506661        4.5184796117        3.9850298740
 O        -1.8103703914        4.5436082984        1.8734390802
 O        -2.5989648364        2.1097913735        4.2485094550
 C        -0.6117827414        1.3184350023        6.2853522361
 C        -1.7099241411        0.3367336703        6.7820324467
 C        -1.7827642646       -1.0188221626        5.9809385398
 C        -0.3596217272       -1.6604742975        5.9134968037
 C         0.5764669877       -1.8516980212        7.1021980553
 O        -2.4478185961        0.5767685954        7.7560425153
 O         0.1237215619       -2.0274079313        4.8343253700
 C        -2.8009805742       -2.0439568025        6.5796688234
 C        -2.3966769834       -0.7228613958        4.5668872375
 C         1.9082819556       -1.1378688878        6.9099619480
 C         2.4518417087       -1.2001445820        5.4664675212
 C         3.3503610122       -2.4121287327        4.8685494408
 C         2.4704698233       -3.0626896357        3.7452384657
 C         1.8739383377       -4.4262987795        3.9321362039
 C         4.7501436534       -1.8083097800        4.1872518745
 C         3.7619053287       -3.4264835748        6.0582507234
 O         2.2038118619       -0.1870281400        4.7864074397
 O         2.1327847852       -2.4297073934        2.7287517705
 C         1.0527942880       -4.9409281200        2.7312047015
 C         1.4725076507       -6.3441880020        2.2016050641
 C         0.3319897210       -7.2509971824        1.6964260617
 C        -0.2696902852       -7.9093459186        3.1055118912
 C         0.0116306824       -9.3221511404        3.5013906685
 O         2.5974854058       -6.7596615991        2.2499776982
 O        -0.9756063844       -7.2376417951        3.7721501746
 C        -0.7763661004       -6.5049236852        0.9443301902
 C         0.9964042852       -8.4523955483        0.9177050249
 H         0.1755477976       -2.8771415053      -12.4595858988
 H         0.2384075149       -2.9286322506      -10.6460703538
 H        -0.5198266919       -1.6523232045      -11.3233409565
 H         1.3867522161       -0.8480933148       -8.0891090003
 H         1.8460145913        0.8025490623       -8.2228807329
 H         3.7757989403        0.0173610643      -11.4237233376
 H         3.4974391456       -0.3228744834       -9.6240884210
 H         3.2993803533        1.3164737028      -10.3130705345
 H         1.5326321171        1.8951401036      -12.0698288216
 H         1.9701967482        0.4183533972      -12.9797402587
 H         0.3021139258        0.6974551870      -12.3455573194
 H        -0.8987697360        1.3739669981       -8.0510418477
 H        -1.0132457616       -0.1855239163       -7.3864234498
 H        -2.8913530381        3.5907151106       -6.1514011630
 H        -2.4226360486        1.9140856156       -6.4877108526
 H         0.9165037307        3.7149040980       -4.2186986288
 H         2.1141934998        3.1989422183       -5.2358912546
 H         1.3180140167        2.0883368936       -4.1974404816
 H        -0.3641835170        4.7549523893       -6.7510688753
 H         0.8163882088        3.5994063776       -7.5108191712
 H        -0.9929396672        3.3829940301       -7.5003616524
 H        -4.6278933408        2.2094165221       -5.2184587313
 H        -3.7057170300        2.9267214160       -3.8915783025
 H        -2.3483685160       -0.3073411449       -0.1514419662
 H        -1.7226043041       -0.1499148765       -1.8151548370
 H        -6.0629990381       -0.0155497314       -3.9876356254
 H        -5.9242064825        1.4960557003       -3.2508737173
 H        -6.3621697861        0.1134342615       -2.2423962951
 H        -4.9988183242       -1.8980261609       -3.4477799615
 H        -3.1943671467       -1.5933178094       -3.5476715375
 H        -4.0647241835       -1.8098873459       -2.0173824969
 H        -1.2755459794        2.0015619905       -1.8155343567
 H        -2.1190780020        2.2869246267       -0.0799923024
 H         1.9546506697        4.7951178505        1.9176663938
 H         0.3732973514        4.8915715381        1.0330696936
 H         2.9507349645        2.5437236353       -0.4629538165
 H         2.1563176130        1.1399482037       -1.1370714454
 H         2.6068908627        1.0667320981        0.5260146484
 H         1.5283741133        4.2830210455       -0.8004826247
 H         0.8037832714        3.3573155324       -1.8968726582
 H        -0.2269429302        3.9824279180       -0.6301535340
 H         0.5361706153        5.7311481405        3.5118108769
 H         0.3109663012        3.8985101980        3.9571982317
 H        -0.2712655000        3.5057983539        6.2810118502
 H        -1.8486576994        2.9363823451        6.8892324444
 H        -0.8915672085        5.5207173513        5.6482703154
 H        -2.4727104973        6.1043014059        5.8716354263
 H        -1.6139345669        6.5535522430        4.4872806021
 H        -4.2210164349        3.5817937489        4.1537554831
 H        -4.1971804199        5.3317456414        4.5338466784
 H        -3.8489320965        4.6706084355        2.9258955521
 H        -0.0718788937        0.9461883246        5.4039184203
 H         0.1495899442        1.3227344172        7.0634567544
 H         0.0942068798       -1.4579734449        8.0638180576
 H         0.7824008735       -2.8643378812        7.2504212267
 H        -3.7880900470       -1.6082864428        6.4924262835
 H        -2.5858694240       -2.2494590359        7.6327644219
 H        -2.6836878780       -2.8690960377        5.9296092796
 H        -1.6094979023       -0.4527392759        3.9712347804
 H        -2.8284541543       -1.5491737362        4.0710532699
 H        -3.1600650180        0.0577859764        4.5437757375
 H         2.5098984845       -1.6918476151        7.5941155005
 H         1.8621106503       -0.1539169496        7.2934058950
 H         2.7086618913       -5.1267073402        4.1651659495
 H         1.1603580792       -4.4438662044        4.8097965613
 H         4.5996827184       -1.6196375904        3.1256373466
 H         5.4956035321       -2.5816097495        4.2406827301
 H         5.2796424880       -0.8918451960        4.6200517432
 H         4.2834735685       -2.9278977008        6.8503461663
 H         2.8617316776       -4.0288695969        6.3930961128
 H         4.4073678312       -4.1741294387        5.6698467940
 H         0.0441603420       -4.8688422096        3.0605848356
 H         1.2240262361       -4.2745609147        1.8121198025
 H        -0.4239562299       -9.3794183740        4.5261625771
 H        -0.5227757715       -9.9948285244        2.7926821788
 H         1.0619808538       -9.6060467202        3.3507035181
 H        -0.3138482331       -5.8740686179        0.1751719873
 H        -1.2524495687       -5.8884508341        1.6962348232
 H        -1.3558909814       -7.1644455371        0.3416157527
 H         0.3204406642       -9.3372159593        0.8154503546
 H         1.0962186046       -8.1849594329       -0.1499473245
 H         1.8762525595       -8.9400858865        1.3698037154
 Na        1.2968890363       -0.3548732693        2.5297483417
