155

 C         0.4659424604       -1.9858651494      -11.6623678746
 C         1.8587648755       -1.4404434763      -11.4939026312
 C         1.8952814032        0.1714578231      -11.0038358030
 C         0.7194977749        0.3655567695       -9.9342384434
 C         0.9445488829        0.1524638693       -8.3759878538
 C         3.2823048587        0.3385456981      -10.2213564532
 C         1.6468005469        1.1639748616      -12.0855426481
 O         2.8669212638       -2.0940882524      -11.5689671269
 O        -0.3771988964        0.7516439818      -10.2187371516
 C        -0.2270147109        0.6246454017       -7.5450919926
 C         0.2291292713        1.0818112683       -6.0749191333
 C        -0.0544201215        2.6679760049       -5.6653170737
 C        -1.3058554873        2.8744397380       -4.8597199583
 C        -2.6969290554        2.7037805163       -5.6134378405
 O         0.4983182027        0.2107195565       -5.2713315245
 O        -1.2963805414        3.2534284786       -3.6844823778
 C         1.1816650726        3.2840959999       -4.8757495623
 C        -0.0931328616        3.5195056177       -6.9764127160
 C        -3.8245820595        2.0998810997       -4.6782856363
 C        -3.3903856053        0.7960077906       -4.1900574448
 C        -4.3393691128        0.1783787434       -3.0944383968
 C        -3.9201076969        0.7357887636       -1.5954609243
 C        -2.5790862292        0.3001988431       -1.1089860420
 C        -5.7782534033        0.6627917727       -3.3439100675
 C        -4.1150331239       -1.3352233931       -3.0866904858
 O        -2.3548650431        0.2317656589       -4.4977635383
 O        -4.7661139415        1.2763107301       -0.8654454527
 C        -1.6486756049        1.5077589070       -0.6394311481
 C        -0.2895250447        1.1527145540        0.0804966375
 C         0.8349400786        2.4034263282        0.1164222614
 C         0.9703669562        2.8477396452        1.5557966195
 C         0.8107685038        4.2784339513        2.0046431616
 O        -0.0839309294        0.1452186146        0.7289672127
 O         1.1000463652        2.0214798551        2.4391259245
 C         2.2516289523        1.8567468534       -0.2219762449
 C         0.4099790305        3.4834749607       -0.8379742137
 C        -0.0098268165        4.3781343208        3.2864393916
 C        -1.6148336070        4.5224165942        2.9620435527
 C        -2.4004302626        4.3810621284        4.2815283837
 C        -2.0427432861        3.0715220205        5.0588758021
 C        -1.1526951131        2.8780816524        6.2741439899
 C        -1.9871720219        5.5804629825        5.1343812694
 C        -3.9468913936        4.5740576979        3.9725594757
 O        -1.9715734474        4.6528979019        1.8593857318
 O        -2.4609457213        2.0446561853        4.5184592040
 C        -0.5987881012        1.4081279058        6.1577719877
 C        -1.7635233459        0.3981578524        6.5730213554
 C        -1.6974849393       -1.1900907928        5.9835556857
 C        -0.2735600497       -1.6499090033        5.7718200629
 C         0.6376728696       -1.7130144594        7.0531110761
 O        -2.5035063201        0.5954515844        7.4401913828
 O         0.2490290785       -1.9250633762        4.7162300286
 C        -2.4949553682       -2.0054935001        7.0483489218
 C        -2.2385517885       -1.0872531331        4.5510166791
 C         2.0666206358       -1.0785419252        6.8844671343
 C         2.4123544333       -1.1730881918        5.4136041376
 C         3.2497945604       -2.3622233413        4.8983403948
 C         2.3741445830       -2.9928760245        3.6830273322
 C         1.8286725063       -4.3701849702        3.9484635922
 C         4.4287825414       -1.7416404782        4.1297687613
 C         3.7755654225       -3.3773488684        5.9336682054
 O         2.2620415514       -0.2439240303        4.6808002503
 O         2.2074633871       -2.4505210563        2.6339017971
 C         1.0598667658       -4.9862730420        2.6947446608
 C         1.5678612641       -6.4364363691        2.2975987390
 C         0.4943635149       -7.4290175834        1.7804001553
 C        -0.0721268063       -8.0181559772        3.0763561319
 C         0.1583194864       -9.4855307432        3.4430241257
 O         2.7456291305       -6.7228125238        2.3573665999
 O        -0.8005374966       -7.3189895990        3.7894630585
 C        -0.6797613668       -6.8086746262        1.0230922290
 C         1.1201973452       -8.3877250104        0.7832378346
 H         0.3420975838       -1.8927061996      -12.6895006970
 H         0.4053538716       -3.0351056180      -11.3832049351
 H        -0.4002465757       -1.5303943562      -11.1189316550
 H         1.2434421684       -0.8238484255       -8.2186705580
 H         1.8479055425        0.6489201601       -8.1432700805
 H         4.0023946143        0.1734644467      -10.9819672394
 H         3.2797493846       -0.4701904809       -9.4290836505
 H         3.4292784249        1.3196490134       -9.7603161306
 H         1.4511181874        2.1398366992      -11.6443254991
 H         2.5210631439        1.0671596888      -12.6970490841
 H         0.6956044439        0.9959370618      -12.6081356040
 H        -0.6921809047        1.4801886575       -8.0743437515
 H        -0.9518249583       -0.1382114816       -7.4070042786
 H        -3.1425759398        3.7079010506       -5.8366524238
 H        -2.5774654118        2.1319615526       -6.5596092126
 H         1.1655805873        4.4227194754       -4.6802675510
 H         2.0685362012        3.0610061086       -5.4886925989
 H         1.4642335790        2.7984375229       -3.9283957737
 H        -0.2557831532        4.5298274059       -6.5645242230
 H         0.7977440841        3.4872407229       -7.5649294699
 H        -0.9966561022        3.3904387265       -7.5635970523
 H        -4.7915978433        2.0757673535       -5.3014111239
 H        -3.9321634158        2.7791545779       -3.7838096180
 H        -2.7635601924       -0.3773047468       -0.2449247469
 H        -2.0131350977       -0.2334055952       -1.8257303214
 H        -6.3278611757        0.0589466279       -4.1991934730
 H        -5.8126109344        1.7622567742       -3.5839383472
 H        -6.4063942155        0.5951149486       -2.5104126728
 H        -4.9443001577       -1.7215675414       -3.6291003497
 H        -3.1534290620       -1.5651947217       -3.5572298345
 H        -4.2989156920       -1.7369959940       -2.0861745553
 H        -1.2006243378        1.9184247872       -1.5524302889
 H        -2.1518467706        2.2022599299        0.0042674020
 H         1.7748749357        4.4778634856        2.4495790580
 H         0.5903837247        5.0078300280        1.3012556796
 H         2.9803998272        2.6093960641       -0.3541491617
 H         2.2750203449        1.3610663565       -1.2574052795
 H         2.5613689878        1.1855408378        0.6177034872
 H         1.2684084287        4.1808492455       -0.9880308690
 H         0.3664375887        3.1131166987       -1.8565823337
 H        -0.5566540378        3.9427869047       -0.6696035295
 H         0.3789496951        5.2500976359        3.7649429272
 H         0.0714090057        3.3976809688        3.8662025027
 H        -0.4250203233        3.6064709380        6.2457891435
 H        -1.6728007354        2.9588034502        7.2111155630
 H        -0.9950633507        5.7231453014        5.3640196026
 H        -2.4899113846        5.8384427329        5.9896444359
 H        -2.1392888715        6.4918490692        4.4386784135
 H        -4.2889192554        3.6306360694        3.4680441222
 H        -4.4981817651        4.8294884138        4.8804689234
 H        -4.0422117494        5.4226313357        3.2582926283
 H        -0.1723370723        1.1214681177        5.1706653833
 H         0.3497196033        1.3085509701        6.7781762957
 H         0.1563877624       -1.4501479106        7.9367031744
 H         0.7836169220       -2.8576909853        7.1494976780
 H        -3.5349819648       -1.7555522847        7.0453776018
 H        -2.0313505596       -1.7328858669        7.9587304503
 H        -2.3079940971       -3.0671498203        6.7792054837
 H        -1.6302132016       -0.4393569426        3.8108103171
 H        -2.1944707391       -2.1036425493        4.0968083607
 H        -3.2535696282       -0.7966921482        4.4971963569
 H         2.7656810755       -1.6426918954        7.5546301383
 H         2.0784107208        0.0022308272        7.2382130588
 H         2.6318022344       -5.0507658052        4.2155211607
 H         1.2033136968       -4.3769212381        4.8207044293
 H         4.0781877224       -0.8194895211        3.6497528502
 H         5.0901649398       -2.3028275487        3.4325836901
 H         5.0812186323       -1.3475575188        4.8778639566
 H         4.5006095518       -2.7999688364        6.5946525105
 H         2.9870115293       -3.6635376065        6.5540473849
 H         4.1930594940       -4.3638963489        5.5684349866
 H        -0.0337771940       -4.9114261362        2.9466529522
 H         1.3501525660       -4.3949156977        1.8617520068
 H        -0.3753922563       -9.7847327908        4.3127299783
 H        -0.1225786071      -10.1054288959        2.5994541374
 H         1.2467279578       -9.6179722241        3.4544210585
 H        -0.4906864724       -6.0574974764        0.2312961911
 H        -1.2431941160       -6.3465058462        1.8271810490
 H        -1.1356519763       -7.7036299976        0.5545497734
 H         0.4975547549       -9.1308471559        0.4241992405
 H         1.4003518832       -7.9475300093       -0.1076631284
 H         1.7778073714       -8.9574095829        1.3286528760
 Na        1.0411259360       -0.2832681948        2.5738887792
