155

 C         1.4450851489       -1.2463030803      -12.4854061117
 C         2.2491283304       -0.9443375706      -11.2665897818
 C         2.4007879095        0.5689162690      -10.6880203029
 C         1.0913840690        0.6361474675       -9.7624345484
 C         1.2836467370        0.5241963139       -8.2288650589
 C         3.7534141065        0.5742124646       -9.8833675527
 C         2.2742294887        1.6366350831      -11.7705878916
 O         2.6916891433       -1.8596000223      -10.6332777402
 O        -0.0046894155        0.6818824285      -10.2741175605
 C        -0.0419288512        0.4879271050       -7.3792901672
 C         0.2955643757        1.1187208720       -6.0531072968
 C         0.1052513252        2.7759136785       -5.8305315711
 C        -1.1580566720        2.6985007205       -4.8578190509
 C        -2.5907865083        2.6777742697       -5.4960199005
 O         0.8676853479        0.5503967582       -5.1349458045
 O        -1.0253742802        2.7929257699       -3.6412137352
 C         1.3343620508        3.2841593797       -5.0063286865
 C        -0.2995263884        3.5433251994       -7.0979610939
 C        -3.7471828897        2.2504948970       -4.6643414018
 C        -3.6405787725        0.7246153552       -4.2345619057
 C        -4.7145201819        0.1883908723       -3.2843638247
 C        -4.1862348105        0.8165987097       -1.9135879377
 C        -2.8422367608        0.2144319403       -1.1135608371
 C        -6.1296927209        0.7155203599       -3.6121738001
 C        -4.7298461469       -1.3567958546       -3.1662525083
 O        -2.6319483886        0.1450576986       -4.6078605390
 O        -4.4882318433        1.8576861998       -1.4689685454
 C        -1.8307140312        1.3250309544       -0.9485610266
 C        -0.7800318293        1.1688989155        0.2229883269
 C         0.4384389201        2.1720445228        0.3353692775
 C         0.4826459117        2.7267674913        1.7743247411
 C         0.3928846104        4.2681064138        1.9715756934
 O        -0.9206935997        0.2375462133        0.9692036656
 O         0.5841267552        1.9966543284        2.7744389457
 C         1.8181802002        1.3892344815        0.1924404161
 C         0.2716974159        3.2700205073       -0.7281064010
 C        -0.3491047252        4.5938433541        3.2345145641
 C        -1.9146163637        4.5439316738        3.1471149401
 C        -2.7140678658        4.3086381278        4.4218587925
 C        -2.3873915061        2.8610011345        4.9902060794
 C        -1.4399873154        2.6878210624        6.1592559774
 C        -2.2484697202        5.3607123160        5.4546330690
 C        -4.2895564680        4.3896524238        4.0771688185
 O        -2.4349181188        4.7327000074        2.0424294556
 O        -2.8784917731        1.8566595872        4.5137619291
 C        -0.9089117448        1.3115119305        6.1980892506
 C        -2.0284238144        0.2746084349        6.6570337568
 C        -1.7199329600       -1.3499347264        6.2148666898
 C        -0.1916000630       -1.5205081056        5.8566837813
 C         0.9893888060       -1.6334584083        6.9067488375
 O        -2.9240678557        0.6309704723        7.3317971559
 O         0.1766998837       -1.3125678099        4.7144973333
 C        -2.1551814529       -2.1834084190        7.4787740228
 C        -2.6780990792       -1.7175772450        5.0445795231
 C         2.1923811591       -0.8256711153        6.4095893335
 C         2.6806680520       -0.9188663206        4.9253182224
 C         3.4336727834       -2.2011501176        4.4725915967
 C         2.4546116208       -2.9973395336        3.5901528536
 C         2.2720737504       -4.4597557180        3.7734325711
 C         4.6059046358       -1.6812374572        3.4978276123
 C         4.1871060403       -3.0576425219        5.4813336878
 O         2.6208065253        0.0483596418        4.1485988097
 O         1.8495017051       -2.4419471363        2.7081585384
 C         1.2985765765       -5.0648088487        2.7452194047
 C         1.8635055149       -6.5547885203        2.3746790273
 C         0.8336694543       -7.7479614606        1.7502695598
 C         0.3259470195       -8.5009966108        3.0176920867
 C         0.6716400402       -9.9741739339        3.3449634660
 O         3.0780986824       -6.7963968235        2.3447151283
 O        -0.4024436534       -7.7924796399        3.7460846479
 C        -0.2781708249       -7.0754248591        1.0738217852
 C         1.7131626085       -8.6106099049        0.8523725055
 H         0.3596254152       -0.9744075590      -12.2768097435
 H         1.6928602529       -0.6550295128      -13.4154174386
 H         1.4479047672       -2.2967118291      -12.6040683340
 H         1.7666721228       -0.4565766124       -8.0180711865
 H         1.8535848370        1.3950653568       -7.9466133320
 H         4.5802323412        0.6127435595      -10.6087295380
 H         3.8908088991       -0.3966981575       -9.4536374681
 H         3.8327378688        1.3977084559       -9.1642615495
 H         2.9430417376        2.4777070191      -11.5178468696
 H         2.4973841261        1.2653736483      -12.8615493623
 H         1.2403932008        1.8464700549      -11.7340155853
 H        -0.8448781759        1.1231019920       -7.8036759267
 H        -0.4114744746       -0.5999849349       -7.2222883655
 H        -2.7492594977        3.6237973519       -6.0736696736
 H        -2.4591227960        1.9430497387       -6.3211686335
 H         0.9447616379        4.1339069478       -4.3912677180
 H         2.1523672939        3.7425257996       -5.6101242441
 H         1.7362958132        2.6209214250       -4.1824956503
 H        -0.7050051909        4.5249764478       -6.8893537270
 H         0.5668079145        3.5481601405       -7.7528805283
 H        -1.0331448028        2.9259553053       -7.5836091788
 H        -4.7431048219        2.5327364739       -5.0073378700
 H        -3.6046484183        2.7600699272       -3.6969527398
 H        -3.2682429959        0.0211130085       -0.1566538887
 H        -2.5533775712       -0.6972096431       -1.6857840966
 H        -6.0993425471        1.8002015064       -3.4392194560
 H        -6.9811511624        0.2359248632       -3.0781513984
 H        -6.2908258954        0.5806460598       -4.6225538428
 H        -5.1686096162       -1.7202587615       -4.1145560911
 H        -3.6907242705       -1.7109325237       -3.2923749689
 H        -5.1241139121       -1.7651068203       -2.2587073523
 H        -1.3866997730        1.5415799368       -1.8742212011
 H        -2.4029108191        2.2082695964       -0.6538226070
 H         1.4286372075        4.6582480499        2.1302073481
 H        -0.0141938283        4.7975486482        1.0594881446
 H         2.6395302452        1.9857268276       -0.1951963625
 H         1.7321819980        0.4754262426       -0.5085174787
 H         2.2205733463        1.0735434111        1.1880714172
 H         0.9628099028        4.0981589873       -0.6412318085
 H         0.1612623319        2.7935122364       -1.7176170980
 H        -0.6313748135        3.8289913721       -0.6329898723
 H         0.0026954125        5.4768217227        3.6330000617
 H        -0.1154360698        3.8505346984        3.9733625499
 H        -0.6153187876        3.4399002271        6.1283787736
 H        -2.0106931339        2.8207062967        7.0755369994
 H        -1.2129331138        5.2636051921        5.7417869225
 H        -2.7851667735        5.3444410809        6.4014685614
 H        -2.4262953906        6.4051292620        5.0931858821
 H        -4.5126123543        3.3937501214        3.6957184701
 H        -4.9876731711        4.5717537232        4.9650090796
 H        -4.4483608188        5.1770046850        3.3353036372
 H        -0.5391881163        1.1023733659        5.1746362061
 H         0.0349438779        1.2825589249        6.7239369780
 H         0.6289439198       -1.1651552235        7.9059465009
 H         1.1869624743       -2.6413781575        7.2056685412
 H        -3.0889365317       -1.7343879624        7.8572057712
 H        -1.3329960306       -2.1243395953        8.2195176829
 H        -2.2500302429       -3.2000903683        7.2039192722
 H        -2.3218362053       -1.4809901529        4.0189097378
 H        -2.7795566204       -2.8417245189        5.1169880192
 H        -3.6790632885       -1.2362564868        5.0900829027
 H         3.0401826909       -1.0630592804        7.1425048850
 H         1.9955510990        0.2739529264        6.4954027352
 H         3.1973190704       -4.9931160745        3.8352596691
 H         1.9316834569       -4.7232557338        4.8111464283
 H         4.3317305538       -1.3964865765        2.4890112549
 H         5.3352100631       -2.4656084915        3.2635007605
 H         5.1407276269       -0.8619850632        3.8853197996
 H         5.0212562280       -2.5328038363        5.8869860216
 H         3.5603783879       -3.3065025992        6.4039176486
 H         4.6154865513       -3.9634003203        5.0783992453
 H         0.3527133949       -5.0697572126        3.2183578465
 H         1.2896862234       -4.4556672480        1.8210904124
 H         0.4739281661      -10.1585160259        4.4060258031
 H        -0.0560329266      -10.6104379860        2.8398284095
 H         1.6577618342      -10.2788575456        3.1248689416
 H         0.1538768351       -6.4184845210        0.4002821679
 H        -0.9093824500       -6.5113917945        1.8182335327
 H        -0.9961848601       -7.8062162843        0.6854628930
 H         1.0590088676       -9.4541873938        0.6086505753
 H         1.9494439604       -8.0577165595       -0.0915764896
 H         2.7219675329       -8.9247496304        1.1297615969
 Na        0.6655166476       -0.2992652602        2.5490512760
