155

 C         2.7018343313       -0.8516683524      -12.7142000305
 C         2.6873166842       -0.7465993914      -11.2420782248
 C         2.7239688723        0.7571519329      -10.6225368171
 C         1.5456437514        1.0260759732       -9.4652769150
 C         1.8704345866        0.7386701146       -7.9774488580
 C         4.1601504000        0.8053789047      -10.0794490681
 C         2.6160085168        1.8831017749      -11.7385175644
 O         2.6082761860       -1.6721895441      -10.4727115180
 O         0.4649261671        1.3743021961       -9.9047770029
 C         0.6165037266        0.3955027779       -7.0991218550
 C         0.5757021017        1.2125449362       -5.8407194743
 C         0.1957940962        2.7440989313       -5.6827006252
 C        -1.2623540484        2.6548867704       -4.9625394945
 C        -2.6170579827        2.4471658904       -5.7626408828
 O         0.9253633606        0.6490230000       -4.8282459868
 O        -1.2266712636        2.6991521351       -3.7503047416
 C         1.2040377685        3.3689886284       -4.6807758724
 C         0.1242661118        3.4735149192       -7.0184245915
 C        -3.7160374983        2.3333855738       -4.6263985807
 C        -3.7981213748        0.7968084172       -4.3329298318
 C        -4.7146252119        0.3546785107       -3.0736089160
 C        -4.2715723184        1.1362662799       -1.8521402592
 C        -3.2774420287        0.5447593955       -0.8336685852
 C        -6.2151767897        0.4608326745       -3.3382723681
 C        -4.4232824411       -1.1596790780       -2.9956295182
 O        -3.2608635979       -0.0552949147       -5.0131824487
 O        -4.7553068242        2.2186584318       -1.6619685848
 C        -2.2569149817        1.6152998691       -0.6322124075
 C        -0.9459651031        1.1185954975        0.1296588920
 C         0.3001457279        2.0461533145        0.2929473423
 C         0.0784354390        2.7207532725        1.7259173014
 C        -0.2850316899        4.2291165225        1.7047238369
 O        -1.0022051501       -0.0170013579        0.6780394940
 O         0.1120964224        2.0341938044        2.7120367695
 C         1.6348233941        1.2003068883        0.3863128225
 C         0.4599016988        3.0123702723       -0.9047194213
 C        -0.8366863670        4.6313772348        3.0623334252
 C        -2.3277057482        4.4936048968        3.1808795764
 C        -3.0639950113        4.3770854825        4.5524429222
 C        -2.7306537695        2.7624585790        4.8941601399
 C        -2.4017785262        2.3832755100        6.3256054306
 C        -2.5571389023        5.4382292704        5.5444167079
 C        -4.6241379989        4.4041363613        4.3566675288
 O        -2.9967853335        4.3539306904        2.1353374369
 O        -2.7426942170        1.9897280863        3.9543940087
 C        -1.3746163744        1.1682810132        6.3224243214
 C        -2.0135127006        0.0185080970        7.1026236381
 C        -1.6961383354       -1.5060212399        6.7684199016
 C        -0.4839412538       -1.4294138192        5.7847105344
 C         0.9188147881       -1.7865507723        6.1651871343
 O        -2.7374923794        0.2210115544        8.0230397647
 O        -0.7528376786       -1.2011137140        4.6286137079
 C        -1.5688616876       -2.3515604967        8.1169386298
 C        -2.9257894372       -1.9566811935        5.8837531231
 C         2.0166026977       -0.7216889757        5.6963705913
 C         2.6518584160       -0.7977520437        4.2849791035
 C         3.4539105230       -2.0567401568        3.9034404596
 C         2.4600818688       -3.0525445612        3.3572803145
 C         2.8034794661       -4.4917278065        3.3730913030
 C         4.4554355677       -1.6885504368        2.7683220089
 C         4.3237606088       -2.5479374719        5.1181391675
 O         2.6244438637        0.1544826616        3.5481620775
 O         1.3640756002       -2.5994290398        2.9044081953
 C         1.7322318375       -5.4788397473        2.9903845665
 C         2.3353293544       -6.8238571217        2.3739263324
 C         1.2640082463       -7.8674855269        1.6892791086
 C         0.7177123979       -8.5525631141        3.0341706337
 C         1.1518067724       -9.9608866911        3.3343847538
 O         3.5716012226       -6.9913329660        2.2312500118
 O         0.0257898313       -7.8597148192        3.7744434303
 C         0.1174202470       -7.2249480964        0.9697955075
 C         2.1400901151       -8.8360043404        0.7598489072
 H         2.3771321048       -1.9212700771      -12.9442896420
 H         2.2257235487        0.0174823798      -13.2347090374
 H         3.7377323857       -0.9383163830      -12.9579309575
 H         2.5708615419       -0.1517682405       -8.0101366754
 H         2.4013854974        1.7096835400       -7.6328954448
 H         4.8937476125        0.9887510269      -10.8683534362
 H         4.3025099043       -0.1283987161       -9.5871455031
 H         4.3842340542        1.5181128602       -9.2974111568
 H         2.8907962621        2.9081471759      -11.3412636682
 H         3.3455383192        1.6031268344      -12.5365239238
 H         1.5749436321        1.8445394435      -12.0794823398
 H        -0.3287832484        0.4138474179       -7.6767326280
 H         0.6804409518       -0.6435985778       -6.7774760199
 H        -2.8175615197        3.2363975395       -6.4749607085
 H        -2.6687922010        1.5436470938       -6.3795957017
 H         1.0150019756        4.4400222316       -4.5563958074
 H         2.3259711516        3.2755416452       -4.8957874886
 H         1.0490963707        2.8629253727       -3.6786852573
 H        -0.2893856047        4.4387250550       -6.7115513561
 H         1.1200233900        3.6615591272       -7.3952713747
 H        -0.4396098790        2.9580824868       -7.7879313540
 H        -4.7001041701        2.7098965312       -4.7463190038
 H        -3.4158023621        2.7705268711       -3.6818043419
 H        -3.8278623372        0.3128884363        0.1019940693
 H        -2.9336956635       -0.4024188693       -1.2610478273
 H        -6.8068620692        0.0758617540       -2.5974062644
 H        -6.2791276889       -0.1006781686       -4.2647117812
 H        -6.5019724562        1.4911275116       -3.6494974133
 H        -4.8524623959       -1.6076133877       -3.9014206640
 H        -3.3749190793       -1.3810328284       -2.9260744990
 H        -4.9028714322       -1.6552566527       -2.1180056413
 H        -2.0453656464        2.1038047804       -1.6614464388
 H        -2.6557653935        2.4813927152       -0.1220703271
 H         0.5768539983        4.8559024832        1.3349391508
 H        -1.0360100261        4.2353441305        0.8822334863
 H         2.0436082878        1.0912734904        1.4265889183
 H         2.3622769699        1.6024487537       -0.2021036683
 H         1.5661983765        0.2731743522       -0.1207392605
 H         1.3228311166        3.6141205167       -0.9329124016
 H         0.5620785377        2.5052703059       -1.8439550615
 H        -0.4928502707        3.5921640025       -0.8725585474
 H        -0.3664526497        5.6286735510        3.5819600114
 H        -0.5062218248        3.8792365615        3.8858184733
 H        -1.9004435436        3.2816952945        6.8150148914
 H        -3.3466889095        2.1116518372        6.9015713141
 H        -1.3995023995        5.4909645874        5.5962778963
 H        -2.9267533002        5.2487695443        6.6123925618
 H        -2.8812639554        6.3621914174        5.2008046320
 H        -5.2329642796        3.4948570895        4.4993952472
 H        -4.8658096985        5.0628225107        5.1919748547
 H        -4.9361572469        4.8089395716        3.3730093677
 H        -1.1118988431        1.0313266581        5.3166523035
 H        -0.5197715737        1.4862131394        6.8869570849
 H         0.9571132335       -1.8531363233        7.2258042550
 H         1.1418070797       -2.7948140534        5.7156472162
 H        -2.2813574937       -1.8875243193        8.8241955425
 H        -0.5780533829       -2.3484484261        8.6174397032
 H        -1.9044530078       -3.3867847409        7.8893937007
 H        -3.0422823480       -1.1753605634        5.1468104465
 H        -2.8122478642       -2.8780147088        5.2729047168
 H        -3.8696881223       -2.0642216568        6.5499119224
 H         2.8537633905       -0.8579250883        6.3357337149
 H         1.7306247842        0.3304453429        5.8372332300
 H         3.7272305888       -4.7715970251        2.7947408391
 H         3.2130090752       -4.7194847692        4.3313964266
 H         4.0412228556       -1.5173063839        1.8145017040
 H         5.1073255290       -2.4859017821        2.5945416352
 H         5.1770296826       -0.8507508828        2.9301133421
 H         5.0119051203       -1.8362660658        5.5291736891
 H         3.8635382059       -3.1456995463        5.9487767025
 H         4.9356377444       -3.2800183715        4.6649316988
 H         1.0455691098       -5.7442838850        3.8244543782
 H         0.9607815242       -5.0836766366        2.3261279803
 H         0.2951588556      -10.6082914398        3.5168243590
 H         1.6565255878      -10.3736836661        2.4977617289
 H         1.6690738290      -10.0570469830        4.2811770987
 H         0.5642432319       -6.6263310073        0.1694707484
 H        -0.4847087199       -6.7267690361        1.6734461002
 H        -0.4162815878       -7.9076880281        0.3952045217
 H         1.5545250850       -9.6423472985        0.1939111606
 H         2.5456010808       -8.1595281030       -0.0246841284
 H         3.1363198349       -9.0681935909        1.2784164256
 Na        0.2920417165       -0.4142100821        2.7541690879
