155

 C         3.2765092908       -0.7461658982      -12.3716459078
 C         2.9059425244       -0.4427475589      -10.9454369942
 C         3.0471111245        1.0378699622      -10.4512112835
 C         1.8826474127        1.2031239734       -9.2962135189
 C         2.0210130778        0.5356378229       -7.8898018317
 C         4.5202426425        1.2004609734       -9.9885064397
 C         2.7361765755        2.1085763530      -11.5439015535
 O         2.4969529378       -1.2600477364      -10.1788453448
 O         0.8854648180        1.7705972145       -9.6301919491
 C         0.6101265412        0.4344487078       -7.1708334416
 C         0.7566018138        1.1199007068       -5.8236794970
 C         0.1164086138        2.5441536746       -5.6286300904
 C        -1.2094010342        2.5784677822       -4.6541001856
 C        -2.4187806032        2.4342274037       -5.5064836633
 O         1.3796449499        0.6350680488       -4.8753850285
 O        -1.1599122518        2.6767571216       -3.4387505296
 C         1.1282055417        3.4446094231       -4.8175045753
 C        -0.1670271123        3.2974323855       -6.9574642479
 C        -3.7188220083        2.1126380307       -4.8236232769
 C        -3.8831930170        0.6096940131       -4.5106601097
 C        -4.8119634415        0.2314511038       -3.0872523361
 C        -4.3256950162        1.1445132905       -1.9735665639
 C        -3.2383361793        0.6898092178       -0.9127974065
 C        -6.2636952459        0.6592374490       -3.5448453475
 C        -4.6339969446       -1.2539610648       -2.8322940736
 O        -3.4176250501       -0.2723897957       -5.1958310161
 O        -4.5313584533        2.3120171898       -1.9236959921
 C        -2.1434604048        1.6324576678       -0.7341950505
 C        -0.9748367629        1.1195084544        0.0611170092
 C         0.3237741469        1.9517728835        0.1997898909
 C         0.0080575986        2.5787321074        1.7403249687
 C        -0.4656414627        4.0598152276        1.8341500104
 O        -1.0969810532       -0.0323758320        0.5144518378
 O         0.0831546400        1.8922002195        2.6926235121
 C         1.6869012066        1.1389586520        0.1683449239
 C         0.3386925407        3.1454758329       -0.8744476051
 C        -1.1747519317        4.5193948206        3.0586722283
 C        -2.7117367005        4.3875251835        3.0706072607
 C        -3.4372878741        4.1335418164        4.5499687821
 C        -3.0681255071        2.6677855550        4.8813680776
 C        -3.0735443940        2.1615713142        6.3445134636
 C        -2.6724240455        5.1559369884        5.5512034940
 C        -4.9030892907        4.4757845949        4.5228827178
 O        -3.3627965017        4.5741288692        2.0778551947
 O        -2.7856474666        1.9123711808        3.9855186407
 C        -1.9493958644        1.0960191170        6.4833204389
 C        -1.9601556176        0.0052980115        7.5892175967
 C        -1.5482760680       -1.4903321438        6.9655730780
 C        -0.6649908857       -1.4134650528        5.7049799365
 C         0.9034144189       -1.7216056278        6.0312760155
 O        -2.3016906737        0.0624262094        8.7074987576
 O        -1.1479773757       -1.1975860254        4.6362844886
 C        -0.9567611906       -2.3840807430        8.1008725898
 C        -2.9967707851       -1.9356686466        6.4984979521
 C         1.7679742224       -0.5247333501        5.5070214573
 C         2.4316503087       -0.6187775205        4.1181554241
 C         3.3491907358       -1.7689404157        3.8045019476
 C         2.3333817599       -3.0276641803        3.2915748414
 C         2.8990077821       -4.4172863423        3.1370170620
 C         4.1108427369       -1.4724943143        2.5182039566
 C         4.3387318159       -2.2694882196        4.8288860286
 O         2.2623103792        0.2246709408        3.2957250368
 O         1.2046250405       -2.7516087357        2.8839516432
 C         2.0369904826       -5.4381477060        2.3379894674
 C         2.5817872919       -6.8112288552        2.0523322800
 C         1.6192436535       -7.9786526141        1.7060349977
 C         1.0813320721       -8.6419386345        3.0815442012
 C         1.4205158750      -10.0917090858        3.4172969429
 O         3.7824983564       -7.0989613468        2.1331675967
 O         0.2434870444       -7.9914273027        3.7063855884
 C         0.2773300617       -7.4570912568        0.8687412176
 C         2.4151961170       -8.9857744685        0.8922383900
 H         4.4040755469       -0.9195296194      -12.3929806721
 H         2.6167430174       -1.5726037559      -12.8117873198
 H         3.1117559256        0.1733177686      -12.8640544841
 H         2.6414737770       -0.3747674565       -8.0725640609
 H         2.7480192506        1.1384219137       -7.2857120635
 H         5.2321375883        0.9103009102      -10.8378532869
 H         4.8067297584        0.6160653620       -9.1366818494
 H         4.7782152024        2.1943437369       -9.5881953296
 H         2.6461509359        3.0719948209      -11.0270133324
 H         3.6247514228        2.0324971054      -12.3006991466
 H         1.8078785296        2.0713778565      -12.0237345025
 H        -0.1891360821        0.9785660674       -7.7168951175
 H         0.2405022793       -0.6223872494       -7.1063835211
 H        -2.6155404712        3.3809770455       -6.0329667796
 H        -2.2184576507        1.6402379572       -6.2837927146
 H         0.6328525562        4.3210542925       -4.5012863622
 H         2.0750952168        3.7024637473       -5.3278085452
 H         1.4403108905        2.8681048022       -3.9124926162
 H        -0.4341182385        4.3258053898       -6.7909289587
 H         0.7750207075        3.3844036262       -7.4670705904
 H        -0.8792518842        2.7348302851       -7.5123985266
 H        -4.6511621017        2.3831959646       -5.2647001404
 H        -3.7612974198        2.5505598994       -3.8129728930
 H        -3.7817968429        0.5710904206        0.0228757633
 H        -2.8389815204       -0.3212475171       -0.9954342332
 H        -6.5492004781       -0.0837787386       -4.2713878216
 H        -6.2814251684        1.6695037054       -4.0145368253
 H        -6.9596269283        0.7208109778       -2.7680006339
 H        -4.9607062817       -2.0180981806       -3.5528639385
 H        -3.5948265394       -1.4200149433       -2.6096928372
 H        -5.2213311721       -1.5190659425       -1.9400678506
 H        -1.7234546325        2.1404693082       -1.6540933615
 H        -2.5193018589        2.4272569562       -0.1745867986
 H         0.4592266431        4.6428114581        1.6015761239
 H        -1.1748217545        4.2209936124        0.9936275274
 H         1.7054048990        0.1287665640       -0.1709088995
 H         2.0996132990        1.0237781448        1.1539091329
 H         2.4324007457        1.7745227506       -0.4219042193
 H         1.1797118330        3.7652896692       -0.5854153956
 H         0.5719172588        2.8378004566       -1.9193062648
 H        -0.6036066825        3.7133488696       -0.9319167111
 H        -0.9099566994        5.6374781159        3.2061932827
 H        -0.7203310795        4.0317458103        4.0788033722
 H        -3.0043571671        2.9078508550        7.2058353935
 H        -4.0212657589        1.6250417466        6.5735028928
 H        -1.6509637326        4.7400814115        5.6220224318
 H        -3.1738806812        5.1557643280        6.5294971760
 H        -2.5477247464        6.0910269019        5.0315447455
 H        -5.2135842388        4.4289306788        3.4860026290
 H        -5.4637280381        3.7269412939        5.1164177604
 H        -5.0920914376        5.4944791228        4.8920268971
 H        -2.2372818787        0.5304983681        5.6309268953
 H        -0.9906996165        1.5906909245        6.3188156591
 H         1.0193651930       -1.6856958948        7.1068835930
 H         1.2398506339       -2.6991195509        5.6224849829
 H        -1.7279210139       -2.9670730630        8.5715972949
 H        -0.4740108543       -1.8160930626        8.8792100162
 H        -0.3029491309       -3.1032473509        7.6870449589
 H        -3.2106447560       -1.3631437055        5.6002971516
 H        -3.0161230384       -3.0309714628        6.2544358494
 H        -3.7457628637       -1.7495148883        7.3177136792
 H         2.6410152739       -0.4198164685        6.1974499149
 H         1.2542084200        0.4955759694        5.5069629987
 H         3.8954304448       -4.2407384866        2.6766208133
 H         3.1355345514       -4.8348001957        4.0704317057
 H         3.4773876648       -0.9959623069        1.7834110179
 H         4.6276615349       -2.2827960093        2.0330650429
 H         4.9185255968       -0.7238182271        2.6172860664
 H         5.1437982091       -1.5685893879        4.8703245079
 H         3.9020282839       -2.3794052987        5.9119981452
 H         4.7511507888       -3.2231806348        4.6271970079
 H         1.0899091104       -5.5498869119        2.8695226587
 H         1.5693189562       -5.0229664246        1.4504113024
 H         1.1678129041      -10.7259368755        2.5574057376
 H         2.4675433062      -10.2551018329        3.5772421459
 H         0.7525575601      -10.5075047029        4.1249594772
 H         0.4938883314       -6.8066971117        0.0023420825
 H        -0.4461701246       -6.9623458180        1.5841995603
 H        -0.1342126929       -8.4091291841        0.5032676366
 H         1.8045986542       -9.9058867840        0.7872663569
 H         2.6043948113       -8.6757378108       -0.1307069107
 H         3.1198714861       -9.3408970519        1.6148999696
 Na        0.1553797771       -0.5341871663        2.4166962799
