155

 C         5.1768038422        0.0591456175      -11.5760082959
 C         4.1644274539        0.1973107470      -10.3300330824
 C         3.9501836455        1.5068605350       -9.6174041117
 C         2.4401852436        1.4371371862       -9.2082353331
 C         2.0976081304        0.5300054508       -7.9536129998
 C         4.9500871773        1.6227236025       -8.4493377025
 C         4.0883425817        2.7465331092      -10.6062609352
 O         3.7380144193       -0.8175930596       -9.8450315846
 O         1.6235805594        2.1214080123       -9.7856632039
 C         0.8095818364        1.0197671747       -7.2020203523
 C         1.0885997672        2.0456970577       -6.1221453822
 C         0.0282899066        3.2152976212       -5.6360812721
 C        -1.2233388521        2.5601952038       -5.1205351529
 C        -1.9897433927        1.6227948360       -6.0733683351
 O         2.2302058636        2.0361514179       -5.7149066602
 O        -1.4599864825        2.6617180047       -3.9001466245
 C         0.6178091344        3.9546970999       -4.4265864224
 C        -0.2142393184        4.1567698239       -6.8054923045
 C        -3.4273304397        1.2932696636       -5.6097197694
 C        -3.5747064404        0.2965134900       -4.4107442441
 C        -5.0555572466        0.0439433037       -3.8815180868
 C        -5.1152780515        0.4996733047       -2.4132514654
 C        -3.9906763660        0.0537389525       -1.3404726105
 C        -6.2244509383        0.8179036690       -4.6700187397
 C        -5.2730319549       -1.5008035303       -4.0130246255
 O        -2.5980922552       -0.2307587089       -3.9549591176
 O        -6.1615083671        0.9507550195       -1.9058044670
 C        -3.0739545182        1.3132878335       -1.0527431119
 C        -1.9245051069        1.0148823090        0.0597027745
 C        -0.8998049802        2.2085548821        0.4251676571
 C        -1.1267855135        2.3407495559        2.0537888434
 C        -1.2293346895        3.8312287631        2.6415222650
 O        -1.5591428406       -0.0717598563        0.5251874359
 O        -1.0514277500        1.3543790496        2.7393941150
 C         0.5488856348        1.7213279053        0.1920223116
 C        -1.0841383714        3.5773728426       -0.3278080172
 C        -1.8390435621        4.0095533717        4.0531038884
 C        -3.3638595195        4.2480924161        4.0001995762
 C        -4.2443117076        3.7383106704        5.1991941342
 C        -4.1440579392        2.2211200365        5.1456504461
 C        -3.3019770901        1.4464917190        6.2073099504
 C        -3.6600490777        4.4550450695        6.3986012668
 C        -5.7294700757        4.1037914154        5.0009302766
 O        -3.8260645927        4.9060484927        3.1513344786
 O        -4.6173605265        1.6070732853        4.2492324511
 C        -2.2768251235        0.5481520278        5.4308858057
 C        -1.4098001643       -0.1257582745        6.6030623241
 C        -1.3632956746       -1.6750776437        6.6419311064
 C         0.0029033132       -1.9218911695        5.9428268411
 C         1.3305299522       -1.7585184573        6.6741974508
 O        -0.7464170169        0.5043819620        7.3483422562
 O        -0.0531994424       -2.2835903973        4.7901422412
 C        -1.3089685967       -2.1378228617        8.0995744327
 C        -2.4997347979       -2.4043483612        5.9240468922
 C         2.2694620083       -0.8418223455        5.9332312387
 C         2.3498746553       -0.7850798297        4.3314464432
 C         3.2972954012       -1.7407368507        3.5811486477
 C         2.3971561246       -2.9004095949        2.9401215474
 C         2.9678639109       -4.3075255502        2.8131460924
 C         3.9786810207       -1.0476987167        2.4193561171
 C         4.4746407758       -2.2852103789        4.4492640761
 O         1.5662538866        0.0052494444        3.7812961153
 O         1.2588909680       -2.6354108152        2.5841198658
 C         2.1021224825       -5.3265963264        2.0387446635
 C         3.0243074146       -6.5670509866        1.5672945096
 C         2.4355250048       -8.0391010542        1.3432291697
 C         1.7733063645       -8.3785702015        2.8701280785
 C         2.5691154559       -9.1507154053        3.9286245873
 O         4.2476508124       -6.4271927985        1.4179525284
 O         0.6826171137       -7.8938608679        3.1924049657
 C         1.1997796529       -7.8573124669        0.3496841174
 C         3.4620482208       -9.1125930684        0.9139407970
 H         5.9287793154        0.8805561205      -11.5364158423
 H         5.5034680359       -0.9974599003      -11.4518064005
 H         4.5651768003        0.1993521003      -12.4984347532
 H         1.8128269486       -0.4510895143       -8.4490378339
 H         2.9129039942        0.5257897930       -7.2317324822
 H         5.9541099700        1.8212033437       -8.8226939234
 H         5.0538203521        0.6491011258       -7.8790789985
 H         4.6107790341        2.2504945437       -7.6121201204
 H         3.4688896125        3.5993563669      -10.2298374281
 H         5.0995738195        2.9993486142      -10.8679227791
 H         3.5835523535        2.6050442521      -11.6007386042
 H         0.0698727364        1.3049069665       -7.9243388112
 H         0.3434056761        0.1386488771       -6.6457367706
 H        -2.0668127427        1.9909070995       -7.0440723029
 H        -1.3579760598        0.7461373357       -6.2226049083
 H        -0.0821220797        4.7625488305       -4.1862582752
 H         1.5468659819        4.4165243597       -4.6899198773
 H         0.7895254387        3.3806553574       -3.5492675632
 H        -1.0650992604        4.7944983836       -6.7030309763
 H         0.5491286976        4.8974744769       -6.8888622191
 H        -0.4214381952        3.5822263848       -7.6935977506
 H        -3.8388346118        0.7042896433       -6.3863734303
 H        -4.0411235341        2.2023397777       -5.5222418252
 H        -4.6433568673       -0.0895709548       -0.4834757557
 H        -3.3790195313       -0.7243886878       -1.8073234364
 H        -6.4688551244        1.6884557587       -4.1326485370
 H        -7.0466052043        0.2052872436       -4.8652572158
 H        -5.9465383198        1.2023251388       -5.7102977082
 H        -5.1831207407       -1.7963977383       -5.0490548382
 H        -4.4886134586       -2.0870206166       -3.5031754538
 H        -6.2080661885       -1.8560056820       -3.6335544174
 H        -2.4183492171        1.4337810275       -2.0046887575
 H        -3.5677893193        2.3098996459       -0.8997154517
 H        -0.1383186810        4.1421410900        2.7591764224
 H        -1.6367248406        4.5801816509        1.8892596713
 H         0.6722858260        1.4041895765       -0.8961056165
 H         0.7308203983        0.8058549118        0.6949342093
 H         1.1807883894        2.4603900642        0.5301920981
 H        -0.2591998651        4.2575401278        0.0060676166
 H        -0.9695714105        3.4788671236       -1.4029063096
 H        -2.0513953697        3.9482754712       -0.0485511908
 H        -1.4516136716        4.8998209792        4.4568281940
 H        -1.5459924339        3.2989800773        4.7849165709
 H        -2.7357759963        2.0364409573        6.8910194552
 H        -4.0599773473        0.8909037386        6.7871173012
 H        -2.5434785018        4.3539104688        6.4709254442
 H        -4.2180059201        3.9564258399        7.2403881950
 H        -3.9009018981        5.4918617604        6.3379182400
 H        -5.8122344177        5.1726133654        5.2095423306
 H        -5.9627155947        3.9551241570        3.9551406476
 H        -6.4886279598        3.6717046169        5.6333403748
 H        -2.6618395315       -0.2245374520        4.7918531722
 H        -1.6590981235        1.1642505006        4.7607912402
 H         1.1275574640       -1.2696172051        7.7022157158
 H         1.9116708871       -2.6109091721        6.8786618817
 H        -1.7367530207       -1.4049465921        8.7331918666
 H        -0.3306990954       -2.1773165832        8.5023154803
 H        -1.8417728745       -3.0294305512        8.3160031074
 H        -2.7217502546       -1.9660376611        4.9529257475
 H        -2.3392604039       -3.4765511310        5.9133541142
 H        -3.3902264036       -2.3284973727        6.6121543031
 H         3.2232927821       -1.0327011117        6.4272630458
 H         2.0183709605        0.1692768486        6.1917622903
 H         3.9849435065       -4.2428520219        2.3142382726
 H         3.2319997606       -4.6701621600        3.7821026773
 H         3.3214484499       -0.5465635114        1.7234896692
 H         4.5834999551       -1.8281436870        1.9235374623
 H         4.7038718584       -0.3076146332        2.7312361865
 H         4.9208981159       -1.3002392430        4.6981315471
 H         4.2729397911       -2.8796035023        5.2837510263
 H         5.1556537954       -2.8298914010        3.7364111739
 H         1.2144643383       -5.5126954546        2.6111578707
 H         1.7706103470       -4.7983807921        1.1319842010
 H         3.5862918676       -9.3789671657        3.6786146366
 H         2.5981548985       -8.5606866531        4.8338804374
 H         2.0673570958      -10.0944965064        4.1938826207
 H         1.5251554681       -7.4585672437       -0.6492125509
 H         0.5630478477       -7.1495860737        0.8397305814
 H         0.5287959094       -8.7266250198        0.1139861750
 H         2.9925749243      -10.1386272916        0.8573820883
 H         4.0524038248       -9.0384615654        0.0023536366
 H         4.1762787337       -9.0414510271        1.8135342819
 Na       -0.1362701834       -0.8250654708        2.2928941263
