155

 C         5.0283368753        0.9616271333      -10.3405423983
 C         5.3490876390        1.0710557117       -8.8734802159
 C         5.0199513914        2.3890428028       -8.1926078455
 C         3.5077356972        2.4514910040       -7.8978567357
 C         2.8505097008        1.3988357343       -6.9789441673
 C         5.6489279276        2.5133147499       -6.6882032508
 C         5.5387014369        3.6857941760       -8.9589656270
 O         5.9056356495        0.2109977426       -8.2731559570
 O         2.7251518681        3.1493323540       -8.5172269131
 C         1.2819832835        1.5539006079       -6.9636305378
 C         0.7401250879        2.1694450521       -5.6897436852
 C        -0.6557421886        2.9202803773       -5.9239845207
 C        -1.8592436029        2.1602146825       -5.3187677807
 C        -3.0560199711        1.6866704750       -6.2481288578
 O         1.3767668347        2.1396943067       -4.6552371251
 O        -1.9242164667        2.1348548374       -4.1043945007
 C        -0.5877422483        4.3329787656       -5.2076564639
 C        -0.9487441827        3.2311240683       -7.4717072813
 C        -4.0780864487        0.5417786616       -5.7123231173
 C        -3.1769130627       -0.6094686937       -5.0734001058
 C        -3.9511337169       -1.4477157879       -3.9362321662
 C        -4.0960978984       -0.5374289288       -2.6104934032
 C        -2.9433726262       -0.4676030874       -1.6476694941
 C        -5.3316130133       -1.8921637328       -4.5554894046
 C        -3.0993467276       -2.6814251184       -3.6476272442
 O        -2.1379670217       -0.9224660641       -5.5943121090
 O        -5.1343010683        0.0524093009       -2.4727218904
 C        -2.5985508839        0.9351206479       -1.3689357383
 C        -1.5055714763        1.1140184355       -0.3084762238
 C        -1.0973394411        2.5694104620        0.2812470499
 C        -1.7402139882        2.5508835702        1.7188338532
 C        -2.4243280604        3.9130769470        2.2296640562
 O        -0.9176452377        0.1074432887        0.0153755424
 O        -1.4571638988        1.6209664250        2.4567119151
 C         0.4418412472        2.6024701995        0.2767763585
 C        -1.6024623122        3.6290928883       -0.6637223682
 C        -2.6304690671        3.8319703586        3.7410566381
 C        -3.9923438020        3.2004518927        4.1086073992
 C        -4.3007249457        3.1100139101        5.6412969661
 C        -4.3381229960        1.5292267326        6.1603361682
 C        -3.2909409084        1.0555274797        7.2280593698
 C        -3.2829344023        3.8555240142        6.4865370596
 C        -5.7062391396        3.6354666467        5.7358894403
 O        -4.8100168573        3.0486130483        3.2173313999
 O        -5.1929443941        0.8114336056        5.7754892784
 C        -3.2804181237       -0.4287243279        7.4368059301
 C        -1.9906511514       -1.2087584974        6.9849407995
 C        -1.9715270544       -2.5130333663        6.1251517851
 C        -1.1585433015       -2.0900853553        4.9291220182
 C         0.2881827274       -2.6471798639        4.6899119482
 O        -0.9264884455       -0.7288283098        7.1406050896
 O        -1.6107109638       -1.3446542887        4.0983700229
 C        -1.2081438858       -3.5068236753        7.0110485024
 C        -3.1765487435       -3.4001132053        5.6312547521
 C         1.4609320566       -1.7743051194        5.3475128969
 C         1.9383518465       -0.7515485866        4.2341903522
 C         3.1953741338       -0.8668024719        3.2710703912
 C         2.6274784637       -1.9648020378        2.2483143697
 C         3.4270747305       -3.2636198842        2.1005459570
 C         3.3813481180        0.4966262920        2.5348904606
 C         4.6322542630       -1.2229841485        3.8094032204
 O         1.1823621266        0.1849349546        4.0497316223
 O         1.6987636386       -1.6825730156        1.5287459646
 C         2.5571978424       -4.4324166664        1.5519414806
 C         3.3282469534       -5.6544473560        1.1675538039
 C         2.4502579031       -6.9796522722        1.0525258069
 C         1.9988283079       -7.5344624264        2.4956523591
 C         2.1568902939       -9.0110800411        2.8859647778
 O         4.5501262454       -5.6279870641        0.9107523462
 O         1.3739353812       -6.7099093890        3.1981229959
 C         1.1168206657       -6.8401196349        0.2444988207
 C         3.2774128551       -8.0741434214        0.2734440693
 H         5.5957601177        1.6601256474      -10.9776524997
 H         5.2008095451       -0.1672891483      -10.4968748071
 H         3.9061187397        1.1637976133      -10.5092149474
 H         3.1645446605        0.4176505141       -7.2783250502
 H         3.2260818630        1.3654209259       -5.9704150855
 H         6.6644462501        2.9438517144       -6.7182310545
 H         5.5829372042        1.5436976639       -6.2776109896
 H         4.9906246801        3.1788738737       -6.1270284305
 H         5.2406311508        4.6284210029       -8.5720980736
 H         6.6415046666        3.6823522884       -8.8712333794
 H         5.2735088269        3.4666901769      -10.0732591278
 H         1.0280109698        1.9373419990       -7.9408897844
 H         0.9062992521        0.4971417201       -6.7835123146
 H        -3.5850503400        2.5735025041       -6.5004214850
 H        -2.5885838965        1.0831004079       -6.9871851659
 H        -1.5471257587        4.6378762207       -4.8385241235
 H        -0.1352809103        4.9219586419       -5.9259443726
 H         0.0368675821        4.2114872565       -4.3647035090
 H        -1.8698808927        3.8764328072       -7.4735691484
 H        -0.0529728941        3.7705834269       -7.8621484435
 H        -1.1451459668        2.3171463627       -8.0962723919
 H        -4.6576473192        0.2105677988       -6.5371059896
 H        -4.7708840468        1.0356368327       -5.0321785928
 H        -3.3451520581       -0.8999654073       -0.6957492830
 H        -2.0201345756       -0.9575747811       -2.0806239560
 H        -5.9378321834       -1.0112582475       -4.9118447920
 H        -5.9069052012       -2.3381196218       -3.8177101883
 H        -5.2408723429       -2.6004737810       -5.3855716396
 H        -2.8611605008       -3.2155864511       -4.5822373796
 H        -2.1435887702       -2.3329692924       -3.2697696390
 H        -3.7068177006       -3.3586226069       -2.9981841419
 H        -2.3476679077        1.5652906497       -2.2244114799
 H        -3.4651376806        1.5126974177       -0.8905176846
 H        -1.5392692157        4.5413041536        1.9928184166
 H        -3.3139704158        4.1520253141        1.5541370321
 H         0.8196966757        2.2380750083        1.2899082725
 H         0.7571835539        3.6590667402        0.2287957457
 H         0.7032250826        2.0360296324       -0.5372784987
 H        -1.3501440963        4.6624724992       -0.5487804975
 H        -1.4638308193        3.3217316318       -1.7480456658
 H        -2.7127784077        3.6294342587       -0.6449174436
 H        -2.6015263256        4.8946262581        4.1127982513
 H        -1.8592403042        3.1811868979        4.2158170079
 H        -2.2425949151        1.4849484322        6.9599638842
 H        -3.5222704568        1.5327117224        8.1325324246
 H        -2.2879132446        3.4756145324        6.5696464879
 H        -3.5642633038        4.0787222768        7.4685266153
 H        -3.0970722936        4.9210266740        6.0661180238
 H        -5.9603770331        4.5717472572        5.3113396218
 H        -6.4236359540        2.8952112053        5.3295532668
 H        -5.9550082337        3.6226948787        6.7783459773
 H        -3.2356579458       -0.6781283802        8.5279329882
 H        -4.2483841402       -0.9146377020        7.2706735990
 H         0.3882510291       -3.6418984306        5.0050899159
 H         0.4188514930       -2.6074010104        3.5683622379
 H        -1.9613786518       -3.7578065904        7.7803831635
 H        -0.2935996987       -3.0591948136        7.4833412151
 H        -1.0226077695       -4.4654919364        6.4846154815
 H        -3.8949266045       -2.8447523418        5.0303803713
 H        -2.8498779393       -4.2501615925        5.0361309723
 H        -3.7187042463       -3.5772582175        6.4974800108
 H         2.2448012995       -2.4475153652        5.5739685401
 H         1.1289887338       -1.1680615917        6.1493669134
 H         4.1749808388       -2.9716028451        1.3746455989
 H         3.8632728092       -3.7384039061        2.9806738214
 H         2.5036278130        0.7031362113        1.8401928541
 H         4.3825781435        0.5221467921        2.0327003933
 H         3.3228960490        1.1816367817        3.3463643993
 H         5.1929306793       -0.2974563633        4.0604427665
 H         4.7872979926       -1.7954292398        4.6821829159
 H         5.2732219311       -1.5053022152        2.9649023456
 H         1.7887624460       -4.5524736647        2.3451400499
 H         2.0376209696       -4.1785044784        0.6626957564
 H         3.1927770482       -9.0599964028        3.2477697393
 H         1.5859857010       -9.1891848249        3.8048208704
 H         2.2135593917       -9.7727570872        2.1370565149
 H         1.1491965646       -6.3275093546       -0.7277392968
 H         0.3579576777       -6.1617738968        0.8211543346
 H         0.6478307836       -7.8485628842        0.4027733067
 H         2.6175384385       -8.8898616043        0.2692751823
 H         3.5528838732       -7.8539983014       -0.7694446302
 H         4.2439338285       -8.4263548852        0.6876860770
 Na       -0.4657568169       -0.4838107231        2.2487539768
