155

 C         5.2290766544        2.2882920717       -9.2007559823
 C         5.3558931084        1.8380215868       -7.6976401068
 C         4.7471236200        2.7205502188       -6.6251242234
 C         3.1177959983        2.2734356596       -6.6450488644
 C         2.5485566772        1.3597586577       -5.6035213767
 C         5.3801864630        2.5813883094       -5.2154736153
 C         4.7725496098        4.2554381789       -7.0097875796
 O         5.8674916698        0.7963930970       -7.3802034087
 O         2.4018512623        2.5761426894       -7.5594968253
 C         0.9768052378        1.3299492696       -5.7907553054
 C         0.0993452522        2.5010240707       -5.3205265837
 C        -1.0568764898        3.1190776651       -6.3011944704
 C        -2.2468002560        2.0228287400       -6.1522767649
 C        -2.3619395881        0.8886474620       -7.1617758501
 O         0.2069392912        2.9040469734       -4.1863198116
 O        -3.0267754569        2.1670151405       -5.2136670812
 C        -1.5817035747        4.3648082959       -5.5748426288
 C        -0.5473423800        3.3022184201       -7.7339005756
 C        -3.0421599865       -0.3588700009       -6.5847450626
 C        -2.2644200998       -1.0751944367       -5.5301238117
 C        -2.8656146111       -2.0183696907       -4.4132368727
 C        -3.2027586364       -1.1292620495       -3.1404168620
 C        -2.0975764100       -0.5106212140       -2.2480255592
 C        -4.0880900300       -2.9228966741       -4.9298006233
 C        -1.7112654861       -2.9750126258       -4.0215352367
 O        -1.0504164762       -0.9096909208       -5.5631024713
 O        -4.3158101876       -0.6102632455       -3.0782654241
 C        -2.4494245577        1.0078101497       -1.9049396577
 C        -2.1184601888        1.2029840166       -0.3849096745
 C        -1.7806177355        2.6493072394        0.0950049561
 C        -1.7898653035        2.8598027551        1.6752088575
 C        -2.5435602445        4.0073220390        2.3958805884
 O        -1.9267410005        0.2816962627        0.3441590480
 O        -1.1650917081        2.0955108569        2.3748740049
 C        -0.3647611741        2.9773236500       -0.3013761565
 C        -2.6775326175        3.6589641263       -0.6247082180
 C        -2.6196131031        3.8538053492        3.9203266148
 C        -3.6368927700        2.5924510735        4.2813029904
 C        -4.2312794644        2.6055104229        5.7278823002
 C        -4.4010411828        1.0388560469        6.2038545858
 C        -3.1607438417        0.6510065285        7.1259859629
 C        -3.2081136787        3.3835546433        6.6883012615
 C        -5.6791970395        3.1951071104        5.6771163823
 O        -3.8620724960        1.7508606286        3.5246228429
 O        -5.3277586994        0.3312971786        5.9229362513
 C        -3.0963424634       -0.8863683644        7.4007760560
 C        -1.9785104235       -1.5034013297        6.6041514154
 C        -2.1144819659       -2.7912132519        5.6424412022
 C        -0.9121217027       -2.7437938451        4.6181528709
 C         0.4366125744       -3.2832582810        5.1875223512
 O        -0.8676496160       -0.9458922102        6.6509066479
 O        -1.0510232116       -2.3972732140        3.4803670763
 C        -2.1487876173       -4.0281073109        6.6575976875
 C        -3.4716620347       -2.8085821050        4.8594129702
 C         1.5453337565       -2.2415279636        5.4637301511
 C         1.5723187075       -1.1221402247        4.4101493828
 C         2.8673557968       -0.8937411009        3.5150521933
 C         2.5151848982       -1.6996601402        2.2609886800
 C         3.4597165549       -2.8829377976        1.9998349219
 C         2.8387391992        0.6516559175        3.1615079946
 C         4.3859390351       -1.1743438417        4.1125028907
 O         0.6793594756       -0.3839633184        4.1573443914
 O         1.6906192483       -1.3026452113        1.4438376130
 C         2.8846835581       -3.7218488785        0.8446554499
 C         3.5759421164       -5.0618715621        0.6331354586
 C         2.5355160371       -6.3296284398        0.5404936769
 C         2.0820751068       -6.4408206781        2.0445894456
 C         2.3859370283       -7.6994510203        2.8351200003
 O         4.7491505473       -5.3477732299        0.4394077326
 O         1.5617803157       -5.4918587236        2.5724101570
 C         1.3094025102       -6.0297015742       -0.3865860433
 C         3.1222512105       -7.5384721852       -0.0656351276
 H         5.5503439863        3.2698267663       -9.4848805276
 H         5.8072037984        1.6528636259       -9.7323916239
 H         4.2137037606        2.1556780321       -9.4635365180
 H         2.8739646622        0.3088536941       -5.7737564872
 H         2.6721506035        1.6035779157       -4.5197253153
 H         6.4023783697        2.9139080539       -5.4631846102
 H         5.3383991295        1.5610730082       -4.8175686009
 H         4.8481954546        3.2636826435       -4.5640973680
 H         4.3184398602        4.7494025629       -6.1031066147
 H         5.7767324706        4.5677809441       -7.3029029583
 H         4.1300059387        4.4076549517       -7.8055788686
 H         0.9080758215        1.0761619163       -6.8856374089
 H         0.6313575751        0.4653918628       -5.2943562486
 H        -2.9642612319        1.2505212453       -8.0703004504
 H        -1.3298917701        0.7570349808       -7.5507331988
 H        -2.2252471190        4.8927055889       -6.2407258147
 H        -0.7808104654        4.9963577946       -5.2232787298
 H        -2.1661665044        4.0870390788       -4.7342401669
 H        -1.3252537172        3.5988043675       -8.4232428173
 H         0.2725829263        4.0074697370       -7.6051909088
 H        -0.2621817205        2.3230191604       -8.1168350098
 H        -3.2790958695       -1.0440657524       -7.4394744154
 H        -4.0304897401       -0.0485147196       -6.1982956798
 H        -1.9252108174       -1.0517441963       -1.3763527606
 H        -1.1208914167       -0.5423009915       -2.7706659856
 H        -4.9688256073       -2.5292111599       -4.5271394435
 H        -4.0066582621       -4.0168759748       -4.5441292615
 H        -4.1016105860       -2.9833608910       -6.0155962565
 H        -1.4545553118       -3.5485060097       -4.9518559360
 H        -0.8246271810       -2.3377293323       -3.8219997516
 H        -2.0048131837       -3.5817195279       -3.1542402302
 H        -1.8795505709        1.6489491902       -2.4905383721
 H        -3.4805198844        1.2254385723       -2.0150131928
 H        -2.2438578515        4.9308887622        1.9808893009
 H        -3.6222706318        3.9243437105        1.9854466262
 H         0.3196102252        2.1382428672       -0.2386267627
 H         0.0267895516        3.8037161122        0.2973785572
 H        -0.4125491349        3.5071676543       -1.3503831310
 H        -2.4300393728        4.7125469874       -0.4233975034
 H        -2.7369235630        3.6554116068       -1.7013998855
 H        -3.6723729721        3.6253540108       -0.2210560185
 H        -2.9380276224        4.9130780952        4.3242748649
 H        -1.5652004509        3.6942344570        4.4155160659
 H        -2.2295394998        1.0655217195        6.7212952803
 H        -3.4163433334        1.0906460687        8.0329006229
 H        -2.1494118484        3.1789376855        6.4501744580
 H        -3.4889680264        3.1636955940        7.7777257688
 H        -3.3943077612        4.3878002264        6.5281052966
 H        -5.7104533457        4.2469174968        5.4812653199
 H        -6.2563517038        2.6466129022        4.9927894569
 H        -6.0712306032        3.1754779903        6.6792612710
 H        -2.7390302664       -0.9719621652        8.4347242918
 H        -4.0592215419       -1.3771139815        7.2269909445
 H         0.3642386805       -3.8540461648        6.0939310264
 H         0.8920416964       -3.9475429470        4.3897944062
 H        -3.0826706848       -4.0566029589        7.1828908519
 H        -1.3680342999       -3.8504307283        7.3694845597
 H        -2.1334236822       -4.9736031221        6.1923922499
 H        -3.6718573471       -1.8996116478        4.2722156224
 H        -3.5143439446       -3.6370215360        4.1255384442
 H        -4.2692196253       -2.9735253396        5.6842871667
 H         2.5090962755       -2.6896651285        5.7326664085
 H         1.1976397678       -1.6953651126        6.4404645563
 H         4.4506050264       -2.5279732523        1.7497769697
 H         3.7456882244       -3.5553066397        2.8474460770
 H         1.9526276341        0.8139608975        2.5806143160
 H         3.7598330525        0.8051496751        2.5800422082
 H         2.8806909978        1.3395763311        4.0333241596
 H         4.7761321625       -0.3435496883        4.6464365020
 H         4.3823838052       -2.0531375517        4.7820274702
 H         5.0071497826       -1.2891395381        3.2226398337
 H         1.7919611045       -3.9250249002        0.9838886149
 H         2.8888677969       -3.1609058501       -0.1102525872
 H         3.3755754945       -7.5596669395        3.2315489938
 H         1.7919379782       -7.6334357813        3.7162999351
 H         2.1475767876       -8.7072088374        2.5102958040
 H         1.8032859045       -5.6308782802       -1.2722566733
 H         0.5709413178       -5.4257556260        0.0231027122
 H         0.7796945542       -6.9418210599       -0.6144694752
 H         2.4651713122       -8.4994689081       -0.1221598039
 H         3.4683767519       -7.2736008625       -1.0927040347
 H         4.1307207030       -7.6799620684        0.3889118147
 Na       -0.4189932004       -0.0685869059        2.2976191228
