155

 C         5.4025701758        3.1143914924       -7.3003795589
 C         5.4003375921        2.8103133100       -5.7506566477
 C         4.7152512826        3.9306341864       -4.7360511919
 C         3.1775646243        3.7243598454       -4.9181383116
 C         2.4058938058        2.8607594475       -3.9688175329
 C         5.2558195035        3.6579355053       -3.2852215642
 C         5.0340873606        5.3267634473       -5.3233832798
 O         5.9926892022        1.8923952620       -5.3247156564
 O         2.6341217259        4.1878311666       -5.9146560471
 C         1.2626122507        2.1262483825       -4.7727426727
 C        -0.0262155790        2.9470831387       -4.8000987114
 C        -1.1371489599        2.5954876064       -5.8642999398
 C        -1.4820527178        1.0472335337       -5.6280927629
 C        -1.9156481557        0.1582645325       -6.7688848380
 O        -0.2099138996        3.9053986700       -4.0809750524
 O        -1.2673429321        0.5978298992       -4.5425251619
 C        -2.4826078795        3.3119953469       -5.4352679192
 C        -0.7591122791        2.8823194663       -7.3529525849
 C        -2.7039512850       -0.9633255668       -6.2085115738
 C        -1.8758865146       -2.0559455114       -5.3975210366
 C        -2.5941542295       -2.9894260575       -4.4736137112
 C        -3.1540669533       -1.9238804464       -3.4239527582
 C        -2.2576779047       -1.4325399207       -2.2615396533
 C        -3.9070451300       -3.5660320984       -5.1067727759
 C        -1.7233811618       -4.1049394755       -3.8439927821
 O        -0.6589600661       -1.8953620210       -5.3157475019
 O        -4.3117874480       -1.5251140776       -3.4965482396
 C        -2.7778317346       -0.1645482196       -1.6090375875
 C        -1.9185390853        0.4112908107       -0.5136259868
 C        -2.0099050910        2.0553629653       -0.2317830098
 C        -2.2008528025        2.4292494592        1.2336385122
 C        -3.6280429385        2.5597067641        1.7301961488
 O        -1.2425874844       -0.2501569291        0.2093935137
 O        -1.2150644349        2.6724072841        1.8750907089
 C        -0.6498164361        2.6974244518       -0.6797434369
 C        -3.0878968932        2.6928389005       -1.1793269221
 C        -3.7012571357        3.1725051111        3.2227267974
 C        -4.1109152690        1.9909320943        4.1469071323
 C        -4.3586609130        2.2053477262        5.7048740293
 C        -4.4592692586        0.6919329909        6.2042303894
 C        -3.1510731433       -0.1359166182        6.2139589171
 C        -3.0958367765        2.9764669386        6.2993693325
 C        -5.7390048737        2.9020396082        5.8673669697
 O        -4.3945521436        0.9236525282        3.6584306782
 O        -5.4570062473        0.1632851383        6.5136218620
 C        -2.9191129402       -1.5330964248        6.8737010225
 C        -2.2396035142       -2.5705150036        5.9770794313
 C        -2.5169422931       -2.7249487050        4.4526330021
 C        -1.4710063845       -1.8436809118        3.7098470487
 C        -0.0752678072       -2.4020240727        3.3602416463
 O        -1.3208093538       -3.3020160526        6.3700255987
 O        -1.8435913195       -0.7042963737        3.4250971688
 C        -2.2235838286       -4.2379543104        4.1255238229
 C        -3.9522721680       -2.2723753624        3.9568087354
 C         1.1155519654       -1.8968556505        4.2670119549
 C         1.6928858539       -0.4209140962        4.1042026684
 C         3.0814539458       -0.5077067832        3.3374466393
 C         2.7577193375       -1.2375192046        1.9862465398
 C         3.4948104449       -2.4877598687        1.6552774633
 C         3.3858717205        0.9473029516        2.8484544423
 C         4.2420158786       -1.0017103202        4.1666554836
 O         0.9840836507        0.5301526115        4.2553495292
 O         1.8657285137       -0.7965952975        1.2430035119
 C         3.3332785886       -3.0098944170        0.2451900770
 C         3.8016111095       -4.5282528355        0.0300100266
 C         2.8361796548       -5.8089099152       -0.0340135718
 C         2.2205158659       -5.7870816169        1.3549272701
 C         2.9124495488       -6.4224454128        2.5985011141
 O         4.9752306148       -4.8291966036        0.0076336359
 O         1.1862491137       -5.1537490969        1.5921012069
 C         1.6618576740       -5.7364371770       -1.0777216846
 C         3.6946097180       -7.1003646969       -0.3126614757
 H         6.1203901593        3.9028047643       -7.5484082791
 H         5.6904002223        2.2290549190       -7.7688514287
 H         4.5017875860        3.3757795594       -7.7716082845
 H         3.1561979449        2.1090070836       -3.5735529086
 H         1.8847453178        3.3817996000       -3.0711901095
 H         6.0590356835        4.2958349945       -3.0272694282
 H         5.5787064614        2.5907003736       -3.2495058465
 H         4.5207541490        3.6712689409       -2.4740433527
 H         4.5080885385        6.0922428688       -4.7908286855
 H         6.0863450606        5.5437970448       -5.3513131209
 H         4.8370542389        5.3667282441       -6.4363800549
 H         1.7306887883        1.8471267356       -5.7535498685
 H         1.1401267790        1.1294410981       -4.2462724578
 H        -2.5186609216        0.6922089735       -7.5423127043
 H        -1.0279676667       -0.2180363570       -7.2117217082
 H        -3.2900592948        3.0444690461       -6.0723220497
 H        -2.4059836997        4.3466779085       -5.5283541055
 H        -2.8172173287        3.0544090450       -4.4725611419
 H        -1.6317231625        2.9171265013       -8.0028606376
 H        -0.0903263410        3.7146255118       -7.5298638038
 H        -0.3008281848        2.0475526718       -7.8623074714
 H        -2.9969060483       -1.6183194157       -7.0743172195
 H        -3.4828224866       -0.6648828157       -5.5676507589
 H        -2.2436609114       -2.1719793141       -1.4377314914
 H        -1.2351768157       -1.3501558227       -2.7191744531
 H        -4.4181224108       -2.8236849682       -5.7847165020
 H        -4.6019164247       -3.8798020491       -4.4094843923
 H        -3.6309867818       -4.4289184164       -5.6972395135
 H        -1.0863962887       -4.5810447185       -4.5888472187
 H        -1.1064125375       -3.7249973327       -2.9791434306
 H        -2.3143878176       -4.8967076385       -3.3036672019
 H        -3.0869346299        0.6635347529       -2.2761364282
 H        -3.7718633642       -0.4652793565       -1.1547929920
 H        -4.3183932451        3.0856736252        1.0340483027
 H        -4.0397537586        1.4848854302        1.9148473730
 H         0.0352206518        2.3770105363        0.0760914590
 H        -0.8101101588        3.7227904553       -0.9364541295
 H        -0.1908017825        2.3202299789       -1.5582791666
 H        -3.1218794866        3.7421671439       -0.9279520622
 H        -2.6410204147        2.4860848574       -2.1410444004
 H        -4.0701567056        2.2749522494       -1.0153825760
 H        -4.5064546933        3.8844598544        3.2230186187
 H        -2.8578313409        3.7816498117        3.5211345479
 H        -2.6288470333       -0.0898321230        5.2946853162
 H        -2.3662434265        0.5157495195        6.8386166559
 H        -2.1590994870        2.4758908584        6.0459266111
 H        -3.2225362778        2.8901497696        7.3502289890
 H        -2.9972277933        4.0956660275        5.9879149704
 H        -5.6968518126        3.8541086737        5.3893520244
 H        -6.4071302203        2.1970237112        5.3636366520
 H        -5.9586903527        3.1275573708        6.8606638468
 H        -2.4450820279       -1.4645129007        7.8345406165
 H        -3.8774922915       -1.9649692868        7.1734312096
 H        -0.1013812375       -3.5388585691        3.3271832231
 H         0.1580127797       -2.1831746090        2.3230033564
 H        -3.0934404386       -4.8193432984        4.3343257129
 H        -1.4891095347       -4.6412066044        4.7498441113
 H        -2.1045711014       -4.5331979934        3.0991374783
 H        -3.9124933839       -1.2862390927        3.5385819784
 H        -4.2623920148       -2.9323825871        3.0760333927
 H        -4.7124845912       -2.3465560849        4.7633457079
 H         1.9802130016       -2.5327168132        4.1002799411
 H         0.8220749390       -1.9813484722        5.2576718322
 H         4.5772300183       -2.3499590352        1.7565203546
 H         3.1960787413       -3.2426518058        2.4512865364
 H         2.5860609452        1.7139032794        3.0929762611
 H         3.5752984881        1.0648920739        1.7832081226
 H         4.2677756871        1.3435595773        3.3495290287
 H         4.5640590215       -0.2204852305        4.8890092087
 H         4.0460688507       -1.9104322711        4.6929403973
 H         5.1114381097       -1.1313839163        3.5213327108
 H         2.3269697459       -3.0823507888       -0.0302282181
 H         3.8156496585       -2.2969294575       -0.4787982672
 H         3.7944369677       -5.8010093386        2.7158201287
 H         2.3636514606       -6.2808022773        3.5643742077
 H         3.3178669576       -7.4314257013        2.5495277398
 H         2.0306294853       -6.0998193028       -2.0168477118
 H         1.4589890390       -4.6880757628       -1.2277930586
 H         0.6623530866       -6.0956479976       -0.7792235175
 H         3.1170317823       -8.0586089608       -0.1512101100
 H         4.1918526391       -7.0270066110       -1.2367963443
 H         4.5009046726       -6.9846367919        0.3982535246
 Na       -0.1654088993        0.5483459398        2.2351169525
