155

 C         5.8256519192        6.0411937136       -1.5883246747
 C         4.3495560144        5.8459801110       -1.6212008909
 C         3.5519838866        5.6108256688       -3.0077291494
 C         3.4871362106        4.1254963182       -3.1878042456
 C         2.3076326050        3.3546830202       -2.3709937257
 C         2.2036238991        6.3511429263       -2.7692150379
 C         4.3376255574        6.2394001862       -4.2661708067
 O         3.7159832881        5.5230071720       -0.6457855713
 O         4.2578811732        3.4495117281       -3.8017884367
 C         1.8052371856        2.2396703261       -3.2129141690
 C         0.6231967071        2.7285728508       -4.1642214485
 C         0.5156835877        2.0633798339       -5.5598035818
 C        -0.4939717745        0.8637232565       -5.3253859357
 C        -0.3163338696       -0.4669888439       -6.1277578683
 O        -0.1921903377        3.5122389152       -3.7239363608
 O        -1.4539331050        0.9597704564       -4.6030378332
 C        -0.3668040455        2.9591898004       -6.3744163377
 C         1.8096665119        1.6637548731       -6.3010387130
 C        -1.5223999898       -1.4639358540       -6.0398226019
 C        -1.4477617438       -2.3629930692       -4.8230090351
 C        -2.6405554582       -3.3331346670       -4.5484875524
 C        -3.5931511808       -2.6465178213       -3.4980350375
 C        -3.1472807671       -2.1116542743       -2.0772882582
 C        -3.3689211506       -3.5709394644       -5.8577296222
 C        -2.0880662401       -4.6753939693       -3.9440787001
 O        -0.5465479212       -2.2619634719       -4.0127348997
 O        -4.8086134303       -2.7098520362       -3.7234971697
 C        -3.5381266299       -0.6801301983       -1.9827017589
 C        -3.1063879082        0.0932713873       -0.8009228113
 C        -3.1688063414        1.6822384761       -0.8929187056
 C        -3.2082323743        2.2666197828        0.5386952386
 C        -4.4894534139        2.9151177228        1.1765003992
 O        -2.4560145037       -0.3990560275        0.0964238117
 O        -2.2625056217        2.0562891974        1.3011354208
 C        -1.8069640737        2.1560027775       -1.4747884637
 C        -4.2596346988        2.0682809058       -1.8771957849
 C        -4.5857602769        2.7464871771        2.7284330645
 C        -4.5853529612        1.2934744809        3.2534797689
 C        -4.4164487589        1.1351257525        4.9204577681
 C        -4.7217575086       -0.3460549080        5.3633484030
 C        -3.4234362102       -1.2544928508        5.7105313008
 C        -2.9045626244        1.5236875848        5.2720120349
 C        -5.4405213478        2.0553978062        5.6980485189
 O        -4.6421989141        0.3010897391        2.5811603564
 O        -5.8170597636       -0.8431597127        5.5225863575
 C        -3.2085871390       -2.2757669053        4.5341980955
 C        -1.9950963907       -3.0732193958        4.8460744346
 C        -1.4363762649       -3.7952149721        3.5897365528
 C        -0.1607033162       -3.0194792024        2.9494674776
 C         1.2599765163       -3.3679929942        3.6228654353
 O        -1.3402925575       -3.1055521200        5.8564549927
 O        -0.2543483510       -2.1706989909        2.1025793896
 C        -0.9548024023       -5.1836888890        3.9090625049
 C        -2.4444498835       -3.9189940000        2.3835701149
 C         1.3586112848       -2.2894320243        4.7741271600
 C         1.1852696545       -0.9279399979        4.0741653088
 C         2.3834565688       -0.1302506242        3.3440988529
 C         2.3218818886       -0.3085619147        1.7462361805
 C         3.5106996395       -0.8037087287        0.9138876429
 C         1.9141436508        1.3669307494        3.6013292631
 C         3.6617210725       -0.5116265612        3.9133564102
 O         0.0351604381       -0.4028188690        4.1270325877
 O         1.2760852957        0.1094659554        1.2262988980
 C         2.9857747200       -2.0623272957        0.1753699182
 C         4.1565765647       -2.9992768473       -0.2774496055
 C         3.6811153269       -4.4385732918       -0.8977503494
 C         3.1949726771       -5.4125669107        0.3010649689
 C         3.5500746125       -6.8589386366        0.1959949907
 O         5.2509662212       -2.5381458590       -0.3828120325
 O         2.6328822497       -5.0351130686        1.3008418917
 C         2.3764429070       -4.3081173644       -1.7992148457
 C         4.8395583336       -4.9975056935       -1.7602019847
 H         6.2421664385        6.8228209144       -2.0705143200
 H         6.1541790470        6.0782109617       -0.6055430682
 H         6.3755731833        5.2212677985       -2.0611025915
 H         2.8090818106        3.0150906378       -1.4694671916
 H         1.5880799881        4.1755604439       -2.1584541071
 H         2.3304568900        7.4502418296       -2.9080860432
 H         1.8552502410        6.0747947460       -1.8009756984
 H         1.4948834600        6.0487280915       -3.6014309118
 H         3.7312932500        6.1906250822       -5.1533166741
 H         4.4972837170        7.3110892870       -3.9869228000
 H         5.3168827068        5.8120977308       -4.1997931445
 H         2.5422861274        1.7539237226       -3.8610692919
 H         1.3923335656        1.3559106396       -2.6603430788
 H        -0.0971796617       -0.3207955867       -7.1748888820
 H         0.5555684818       -0.9814365868       -5.7220542094
 H        -0.6661936794        2.5249527297       -7.3704836959
 H         0.2847595808        3.8476613706       -6.6393748172
 H        -1.2283233900        3.2370833061       -5.7376223503
 H         1.5604709668        1.4188677565       -7.3336426395
 H         2.4593275031        2.5174815198       -6.1682986634
 H         2.2266627924        0.7683065930       -5.9047735126
 H        -1.3294146660       -2.0564811289       -6.9142256887
 H        -2.3496714899       -0.8211734742       -6.0802814888
 H        -3.6652452255       -2.7444323665       -1.2865713649
 H        -2.0784613311       -2.2815201531       -1.8388502126
 H        -4.0646321348       -2.8207297664       -6.1770754696
 H        -3.8176693655       -4.5037949727       -5.8441590027
 H        -2.5569200477       -3.7923713427       -6.6073125715
 H        -1.1623843176       -4.8648744991       -4.4190220361
 H        -1.9300196339       -4.4613888841       -2.8880327658
 H        -2.7606632515       -5.5348035047       -3.9605414228
 H        -3.1912594501       -0.0564879355       -2.7813527834
 H        -4.6748250370       -0.6873992755       -2.0835573923
 H        -4.6724155122        3.9287836690        0.8635380537
 H        -5.3829631679        2.4430867228        0.7457415064
 H        -1.7461375868        3.1907499667       -1.5008111247
 H        -1.7572715299        1.7181963773       -2.4922353314
 H        -0.9513137492        1.7060744999       -1.0028153133
 H        -4.3589857801        3.1545778557       -1.9691090693
 H        -3.9962733023        1.6995482230       -2.8728933278
 H        -5.2769347353        1.6178669193       -1.7715594850
 H        -5.4115537409        3.2498117801        3.2716699034
 H        -3.7884904524        3.2993696690        3.1497408255
 H        -2.4760388657       -0.7479090378        5.7174662704
 H        -3.5552189007       -1.7756090285        6.5708954989
 H        -2.1873299086        0.9225630200        4.6349560275
 H        -2.7854869003        1.2260281947        6.3712442673
 H        -2.6542287943        2.5260428815        5.1751634167
 H        -4.9484554134        3.0543765578        5.8088303211
 H        -6.4111962849        2.0947966336        5.2062843194
 H        -5.6658619319        1.6149457834        6.7283156900
 H        -3.9237011092       -3.0544515884        4.3361094766
 H        -3.0283678590       -1.7809498435        3.5362412269
 H         1.3579749684       -4.3044967796        4.1493947688
 H         1.9706305317       -3.2204098587        2.8592010404
 H        -1.7636153842       -5.8642789497        4.2560093897
 H        -0.2575283376       -5.0697107863        4.7901292126
 H        -0.4085874349       -5.5319440420        3.0701789154
 H        -2.9300772956       -3.0506834783        1.8922761593
 H        -1.9125238916       -4.2445894579        1.5069459929
 H        -3.1944400179       -4.6645558887        2.4292551839
 H         2.3149741160       -2.2722224965        5.4329699180
 H         0.6209582039       -2.7177641719        5.4228193875
 H         3.8676652811       -0.0183513823        0.2116712520
 H         4.3845284616       -1.0106529128        1.5286872537
 H         1.3126130470        1.6609737473        2.7998947661
 H         2.8306152609        1.9487127917        3.6364309517
 H         1.3817251865        1.5827932908        4.5180512967
 H         3.7431364543       -0.1896712744        4.9081686897
 H         3.7686035119       -1.6576988378        3.9333169105
 H         4.5183022153       -0.0269537005        3.4741567698
 H         2.4230115591       -2.6012490396        0.9364073486
 H         2.3217500561       -1.9125449563       -0.7138770164
 H         4.5093737006       -7.0681329406        0.6941689719
 H         2.7155242896       -7.3353354008        0.6252830183
 H         3.4523207896       -7.2089849151       -0.8074986979
 H         2.3780318291       -3.3318450607       -2.3293991524
 H         1.5654145023       -4.5741324209       -1.1340642117
 H         2.3398778566       -5.0170320445       -2.6603005267
 H         4.6508794261       -5.9927332914       -2.0926213220
 H         5.1857042898       -4.1966553311       -2.4305550956
 H         5.7583645945       -5.1653813605       -1.1577610785
 Na       -1.0266631574        0.2085046996        1.8642204079
