155

 C         3.3038316072        5.4472680455        0.5332677547
 C         2.3571948639        5.9275823183       -0.5316270096
 C         2.9265340168        5.9914229455       -2.1470050787
 C         3.2481623027        4.4364146741       -2.5006968985
 C         2.0966066562        3.4465922449       -2.0830821643
 C         1.8052081476        6.4804997120       -3.0640551736
 C         4.2356415018        6.8261990984       -2.2136104545
 O         1.2268788689        6.3161341415       -0.3042825467
 O         4.2584659560        4.1283626588       -3.1249963625
 C         1.8108942426        2.2715090592       -2.9954295985
 C         0.8250599134        2.6292659133       -4.2185527790
 C         0.9113505684        1.6839548710       -5.4342923159
 C         0.4006963809        0.2169948756       -5.0915620599
 C         0.8078541113       -0.9891916646       -5.9777352443
 O         0.2363892168        3.6979823651       -4.1785098731
 O        -0.0699714039        0.0030661272       -3.9878449202
 C         0.0609589810        2.2216696845       -6.5723755662
 C         2.3919992930        1.6374578053       -5.8196105342
 C        -0.4692531672       -1.7632467480       -6.2910756987
 C        -0.7150890373       -2.8111694280       -5.1868659853
 C        -2.2199664617       -3.1343401068       -4.7451132331
 C        -2.8564691412       -1.8298833452       -4.3342259906
 C        -2.9776947697       -1.5188790948       -2.8444047422
 C        -2.9242208655       -3.7520097321       -5.9580082309
 C        -2.0257545912       -4.2266618583       -3.6411225778
 O         0.3058185593       -3.3440968348       -4.7695443681
 O        -3.3215327110       -1.0535622123       -5.1306965742
 C        -3.1172656089        0.0279213499       -2.6393818509
 C        -2.7355357029        0.3822482756       -1.2032028471
 C        -2.6430143548        1.8972619983       -0.7980905850
 C        -2.9743851903        2.1372135155        0.7397418218
 C        -4.1825655418        1.3667417102        1.4184389986
 O        -2.6006309950       -0.4454768725       -0.3440350783
 O        -2.1655809017        2.7715699804        1.3617781391
 C        -1.2371363395        2.3778034864       -1.3329164388
 C        -3.7181394386        2.7241821428       -1.4578561942
 C        -4.2603855776        1.7032689394        2.9584517102
 C        -3.7153976958        0.5003879210        3.8599295750
 C        -4.4085667108        0.0409747669        5.2070667362
 C        -5.4590536479       -1.1704947485        4.9327169231
 C        -5.1517606444       -2.6114382256        5.2277091629
 C        -3.2585429221       -0.3485016577        6.2045540264
 C        -5.2848463998        1.2082685244        5.8266837637
 O        -2.6688698955       -0.0580516906        3.5785769383
 O        -6.4627578730       -0.8123873588        4.3635571446
 C        -4.0515061934       -3.2684881045        4.4107247695
 C        -2.7168692527       -3.7774710026        5.2119097022
 C        -1.3554586771       -4.1642667794        4.4081759567
 C        -0.8972137364       -3.1461091197        3.3491745814
 C         0.6178271830       -2.9044586731        3.1811039651
 O        -2.6833852560       -3.7716330844        6.4017460692
 O        -1.6968359164       -2.6818242228        2.5931294779
 C        -0.3272037039       -4.6314500700        5.5265609613
 C        -1.6355535744       -5.4003106928        3.5431791213
 C         1.3832998817       -1.7689409238        3.9901803779
 C         0.8978119062       -0.2431230887        3.7898971426
 C         1.8359266978        0.6401286223        2.7491514569
 C         1.8860557577       -0.2177302877        1.4783803283
 C         3.1512397349       -0.7455507406        0.8745129411
 C         1.1409499492        2.0406783081        2.4261334697
 C         3.1884868217        1.0297931393        3.4969710647
 O        -0.1666259803        0.1558137791        4.2364072962
 O         0.7613300547       -0.5623588051        1.0369165216
 C         2.8860440619       -1.6280899359       -0.4037589815
 C         4.1504936638       -2.3561856758       -0.8079904861
 C         4.0030555119       -3.6517587989       -1.6624814430
 C         3.6711194028       -4.7425169195       -0.6625800371
 C         4.8351638473       -5.5613238954       -0.0363712495
 O         5.2637834723       -1.9011129233       -0.5745728881
 O         2.5250273413       -4.8245618691       -0.2289769125
 C         2.7714253176       -3.4788368343       -2.6645294760
 C         5.2892222959       -3.9184389516       -2.5226136305
 H         3.1993511391        4.3811773473        0.7009022593
 H         4.3211094523        5.6711794235        0.2290016607
 H         3.2564977586        6.0034534491        1.4820196450
 H         2.2991418338        3.0537980201       -1.0459428162
 H         1.2019716366        4.1142064966       -1.8659792910
 H         1.2696660676        7.2989828390       -2.6198621412
 H         1.1061793988        5.7066897339       -3.2295607948
 H         2.2321387183        6.8641686121       -4.0215856676
 H         4.8429914135        6.3385083153       -2.9780068052
 H         3.8602421648        7.8346179329       -2.4989878375
 H         4.8623925742        6.9315793562       -1.3186615202
 H         2.7046734947        1.9898110878       -3.6232871997
 H         1.4022523916        1.4192669175       -2.4517359156
 H         1.3855013417       -0.7525897187       -6.8559452837
 H         1.4394373655       -1.6015151923       -5.3112200712
 H        -0.1290664305        1.4323906671       -7.2795995377
 H         0.5677028676        2.9694966413       -7.1187495252
 H        -0.8402601138        2.5845440448       -6.1987272325
 H         2.7032076554        1.0991022014       -6.7124840875
 H         2.8859709325        2.6159364363       -5.8160824883
 H         2.9155398452        0.9994287196       -5.1365998780
 H        -0.4708597308       -2.3361795621       -7.1708127914
 H        -1.2646491245       -1.0672382543       -6.5700460197
 H        -3.8911669311       -1.9692458188       -2.5289257737
 H        -2.1395843235       -1.8820459338       -2.2652801352
 H        -3.2712058624       -2.9322019078       -6.6104569952
 H        -3.7484306407       -4.3059477534       -5.6724006322
 H        -2.2824230807       -4.3917743127       -6.6417696196
 H        -2.6729845445       -4.1389643873       -2.7706283070
 H        -2.1988545479       -5.2554615722       -4.0001780382
 H        -1.0081858612       -4.0693178616       -3.1899327504
 H        -2.5742597841        0.5678936698       -3.4125293456
 H        -4.1759610246        0.2749578550       -2.7610005833
 H        -5.1036579666        1.5079700141        1.0464996629
 H        -3.8200778446        0.3554519751        1.2191192389
 H        -0.9736191321        3.3810337232       -1.0171279289
 H        -1.2092425177        2.2715109636       -2.4631693470
 H        -0.4879643317        1.7410040084       -0.8339603945
 H        -3.6283863548        3.7460816961       -1.1992298648
 H        -3.7640695355        2.8119916092       -2.5588603097
 H        -4.7131596109        2.3222630262       -1.3837315765
 H        -5.2537753419        1.9794328039        3.1629201201
 H        -3.5474010679        2.6049054078        3.0790305331
 H        -5.0089455076       -2.6118445218        6.2860882002
 H        -6.0063196038       -3.1398599323        5.0721693565
 H        -2.8959781743       -1.3198586350        5.8908946752
 H        -3.8975236532       -0.4958154348        7.1075224708
 H        -2.5483882445        0.3411750832        6.3676382155
 H        -4.6852408616        2.0536984787        6.0840905674
 H        -6.0050802402        1.6510625571        5.1774795611
 H        -5.8752943685        0.9244146379        6.6944326099
 H        -4.5734264390       -4.1350526949        3.9424755318
 H        -3.8252760700       -2.6650254788        3.5470795786
 H         1.0964219849       -3.8586418615        3.3658194764
 H         0.8573309311       -2.8198655477        2.1545443266
 H        -0.6952060104       -5.5643201932        5.9469524201
 H        -0.1512915942       -3.9784435623        6.3929078810
 H         0.6080866226       -4.8038650017        5.0954991253
 H        -2.4662319742       -5.2882138019        2.8428087816
 H        -0.8279887641       -5.6364245431        2.8409158865
 H        -1.7073502014       -6.2682179622        4.1214339640
 H         2.4545494375       -1.8021369041        3.6742238622
 H         1.4111309400       -1.8275365873        5.0553088299
 H         3.9499201477        0.0329362440        0.6308027201
 H         3.5183430960       -1.4864123905        1.5578293881
 H         1.8004128688        2.5889801550        1.7584333462
 H         0.7834016490        2.6723396802        3.2708737172
 H         0.2448120777        1.7910794706        1.8183435298
 H         2.9936719779        1.4517546100        4.4314830876
 H         3.9339923341        0.1767052401        3.4538031748
 H         3.6510186988        1.8443952638        2.9299198367
 H         2.0603847648       -2.2854718886       -0.1840173474
 H         2.5869043592       -1.0304746580       -1.2765147572
 H         5.3207774670       -4.8685244702        0.7220292062
 H         4.4283757477       -6.3779848254        0.5319452284
 H         5.6080540036       -5.7618435321       -0.7899603408
 H         2.9288232736       -2.7763607371       -3.4554523899
 H         1.9274008317       -3.2507399017       -2.0804347438
 H         2.4717674146       -4.4108865910       -3.1334985124
 H         5.2852330117       -4.9766603887       -2.9549239134
 H         5.6044287211       -3.1104533792       -3.2729298667
 H         6.0688003706       -3.8984362244       -1.7316234994
 Na       -1.3787339316       -0.4945095301        1.7321683216
