155

 C         1.9770979289        6.0093205073        1.3275774638
 C         1.5362332847        5.8183898307       -0.1317919642
 C         2.4680918059        5.9894579830       -1.4106564343
 C         2.7725059281        4.5407213843       -2.0319052476
 C         1.5413051149        3.5904030357       -2.2009179294
 C         1.7720449728        6.6926204529       -2.5629443828
 C         3.8056829272        6.7615818853       -1.1051904617
 O         0.4130813459        5.4590956769       -0.3978956092
 O         3.8453913154        4.3799650574       -2.5292235846
 C         1.9084428463        2.3327605396       -3.1182704752
 C         0.8929709409        2.2969260415       -4.3764466366
 C         1.4479867764        1.4176314681       -5.5391503531
 C         1.1912681573       -0.0329554271       -5.1716740932
 C         1.5120704309       -1.0302423612       -6.2764661808
 O        -0.2172165632        2.7025134586       -4.3199332673
 O         0.7771436078       -0.3939643003       -4.0845924456
 C         0.6346887260        1.7247938982       -6.7985503646
 C         2.9427215472        1.6533331566       -5.8164549927
 C         0.3050338638       -1.9240065416       -6.6893887693
 C        -0.3205458604       -2.6784291929       -5.3828116409
 C        -1.9424293452       -2.6587248366       -5.1651843599
 C        -2.2423273959       -1.2914345879       -4.4260893320
 C        -1.9785682542       -1.1552385017       -2.9300966625
 C        -2.5604711459       -2.8023492990       -6.5532164578
 C        -2.1747757863       -4.0001630282       -4.3395488275
 O         0.3903247510       -3.2420672139       -4.5988943671
 O        -2.6384589069       -0.4065763948       -5.1353799842
 C        -2.3581058446        0.2214092358       -2.4212318320
 C        -2.5434982270        0.2927127066       -0.9063298127
 C        -2.9792149809        1.7499863687       -0.4587873183
 C        -3.3609433553        1.6441645035        1.0058096237
 C        -4.8005140211        0.8983998378        1.3530692218
 O        -2.2546895599       -0.5858249389       -0.1115900806
 O        -2.6281229153        1.9288535258        1.9555831589
 C        -1.6134075739        2.6333805996       -0.5908118565
 C        -4.0769443896        2.2703683689       -1.4577698449
 C        -5.2123868433        1.1168142076        2.7782990319
 C        -4.3478499691        0.4059425914        3.8038307797
 C        -4.9679174472       -0.1289020242        5.1666829579
 C        -5.6313452957       -1.5041969859        4.6869252626
 C        -5.1825171696       -2.9633113972        5.2293773504
 C        -3.7143075796       -0.3870772251        6.1180324830
 C        -5.8367904451        0.9281173241        5.8172849397
 O        -3.1875979818        0.1568594980        3.5107489175
 O        -6.4133556238       -1.3435196239        3.7556395501
 C        -4.0352383639       -3.6166726939        4.4295561706
 C        -2.7991271949       -3.7116426046        5.3593455045
 C        -1.4231102388       -4.1125215777        4.7609522736
 C        -1.0148439529       -2.9171306370        3.7229692513
 C         0.5682209992       -2.8864361167        3.2374482944
 O        -2.9120331637       -3.5266359019        6.5592713783
 O        -1.7700093882       -2.1537445994        3.1792030626
 C        -0.3491980440       -4.3647894944        5.8972652149
 C        -1.4812640526       -5.4291836947        3.8950782837
 C         1.4108179286       -1.8278215939        4.1307608134
 C         1.0018368808       -0.5112256220        3.5694100812
 C         2.0133375409        0.2839317616        2.6713502257
 C         1.7462274488       -0.3379784073        1.2522851008
 C         2.9995567233       -0.6745781394        0.4581855914
 C         1.5049252056        1.8011831791        2.6821440029
 C         3.4729993582        0.3337240197        3.1441427733
 O        -0.0833567200       -0.0965871821        3.8831890352
 O         0.5826904130       -0.3586215405        0.7289626739
 C         2.8160121731       -1.3848537550       -0.9065826941
 C         4.1854343123       -1.9071009940       -1.2987055544
 C         4.3926719681       -3.1772978004       -2.0402791272
 C         4.0478280594       -4.2822387816       -1.0350395871
 C         5.1953189135       -5.1986752822       -0.4735050165
 O         5.1896693950       -1.4038460089       -0.8222282602
 O         2.9310939479       -4.4769401319       -0.6255912853
 C         3.3494983007       -3.4554138351       -3.2990935359
 C         5.8171973091       -3.1393119165       -2.6499719782
 H         3.0508240983        5.8986067373        1.7106098637
 H         1.7736281473        7.0942726641        1.5684365674
 H         1.3736028296        5.3587897150        1.9408996808
 H         1.3233957776        3.2683438720       -1.2233594522
 H         0.6519915015        4.1239099522       -2.5967932007
 H         1.2983561420        7.6731703479       -2.2576968568
 H         1.0260035366        6.0574695522       -3.0406458929
 H         2.5054014261        6.9241976521       -3.3627581779
 H         4.4198152470        6.6906141170       -2.0462531434
 H         3.6065133691        7.7532436593       -1.1386546687
 H         4.3858525570        6.5552045335       -0.1963221820
 H         2.9556766556        2.4537498856       -3.5371199926
 H         1.9048932769        1.4483013259       -2.4605512444
 H         2.0468114575       -0.6035990426       -7.1202636887
 H         2.3062044493       -1.6879788438       -5.7205536376
 H         0.7167314463        0.9110007709       -7.5144195171
 H         0.9146148561        2.7283406998       -7.2230035487
 H        -0.4604104860        1.8357239612       -6.5735367433
 H         3.2634001096        1.2319955380       -6.7812611258
 H         3.3561174997        2.6395732737       -5.9746981473
 H         3.5670706831        1.2934333638       -5.0364421274
 H         0.6880468481       -2.7258093546       -7.3127669313
 H        -0.4906099842       -1.2602536356       -7.1703153035
 H        -2.6812505061       -1.9022651045       -2.4665558802
 H        -0.9503230689       -1.4577752497       -2.6713233728
 H        -2.4893542056       -1.8904416593       -7.1329677919
 H        -3.6293758686       -2.9823592018       -6.5506329690
 H        -2.0562171901       -3.6054506693       -7.1539884436
 H        -2.1070981215       -4.7281890675       -5.0997403677
 H        -1.5343256952       -4.1741332438       -3.5019940158
 H        -3.1789070595       -4.1112526982       -3.9282742767
 H        -1.6190944450        0.9298450297       -2.6608346983
 H        -3.2255939791        0.5553915948       -2.9764414750
 H        -5.5645388929        1.2097780955        0.5936320928
 H        -4.6367811778       -0.1861186401        1.1194989422
 H        -1.6601122671        3.7055911183       -0.2048264607
 H        -1.3273743143        2.6790352268       -1.6249862350
 H        -0.8993440131        2.0463634168       -0.1403478668
 H        -4.6761539092        3.0882362778       -1.0323599623
 H        -3.6794572338        2.6765407780       -2.3467218087
 H        -4.9695239615        1.7091999908       -1.6219893987
 H        -6.2345049257        0.7028193937        2.9157405001
 H        -5.2759622526        2.1480834982        2.9990260928
 H        -4.9868875550       -2.7952550794        6.2954578397
 H        -6.0358713847       -3.6599134690        5.1593598291
 H        -3.1965709236       -1.1524122430        5.5599842160
 H        -4.0089871154       -0.7361234984        7.1010159816
 H        -3.0075662350        0.5028174586        6.1631935985
 H        -5.1647470073        1.7898849532        6.0256576787
 H        -6.7182042508        1.2575407626        5.2815599243
 H        -6.1943293337        0.7598066063        6.8868660148
 H        -4.4490689461       -4.5776707666        4.0504757122
 H        -3.9213169912       -2.9500423552        3.5391134644
 H         0.9340851343       -3.8352245198        3.4077597327
 H         0.7090946673       -2.4999039502        2.2535158161
 H        -0.6687090744       -5.2427261245        6.5041608392
 H        -0.2307983735       -3.4550905975        6.5148977171
 H         0.5953913470       -4.7489037227        5.5145991477
 H        -2.2989452842       -5.4753044878        3.0890852835
 H        -0.4761217590       -5.5119213750        3.5296266532
 H        -1.7090311315       -6.3098421838        4.5159597915
 H         2.4981038523       -2.0761222722        4.2017881786
 H         1.0290238782       -1.8050157102        5.1204488027
 H         3.5091667101        0.3467713918        0.2551102101
 H         3.7088229858       -1.1850824909        1.0429596577
 H         1.6318148865        2.2679512855        1.7740437480
 H         1.9512350708        2.4117281256        3.4299567649
 H         0.4342549526        1.8354582706        2.8345472801
 H         3.6541332836        0.7205390718        4.1677307644
 H         3.7663623048       -0.7507602328        3.2804330454
 H         4.0453836921        0.7487827333        2.3473931074
 H         2.1099362550       -2.1825476408       -0.7667913692
 H         2.3062686821       -0.6814700894       -1.5821201428
 H         5.9505722827       -4.4836284494       -0.2463864765
 H         4.9093214713       -5.8426850610        0.3491750252
 H         5.5119691369       -5.8854476659       -1.2064614358
 H         3.3356483652       -2.7218081831       -4.1510311832
 H         2.2753805729       -3.3485379458       -2.8638661120
 H         3.4042988871       -4.4697003212       -3.6602660110
 H         6.1355905028       -4.2204708730       -2.7549963393
 H         5.8526923512       -2.5899125544       -3.5824288196
 H         6.5057065649       -2.7170468483       -1.9404770898
 Na       -1.3287520716       -0.1689952189        2.0511300086
