155

 C         1.7012527333        6.2359890397        1.1066057444
 C         1.2680386550        5.6546706613       -0.1784686708
 C         2.3055867247        5.9096418720       -1.3549070299
 C         2.6353630242        4.5951206077       -2.0446611144
 C         1.5025175053        3.6743189654       -2.3409665422
 C         1.6091184503        6.9245932220       -2.3192193911
 C         3.5653902234        6.5954214969       -0.8307254321
 O         0.2328364091        4.9925355676       -0.2733656017
 O         3.8026974696        4.2936997271       -2.2601897702
 C         1.9179410722        2.5328975577       -3.1563950908
 C         0.9811942218        2.1874941390       -4.2519370612
 C         1.4322611335        1.3608662847       -5.5427303046
 C         1.3978389685       -0.0871827712       -5.1424250231
 C         1.7058981994       -1.2671194735       -6.0894740672
 O        -0.1707058284        2.6081187896       -4.2696781630
 O         1.1710889691       -0.4179681086       -3.9932541605
 C         0.6601014402        1.8830224690       -6.8048345926
 C         2.9684476926        1.5394103293       -5.8515301187
 C         0.3717393347       -1.7720925196       -6.6274068993
 C        -0.1488389986       -2.6184475053       -5.4507703796
 C        -1.7617366431       -2.6116729916       -5.3353285490
 C        -1.9644592264       -1.3942051009       -4.4787210860
 C        -1.8138213786       -1.3535567098       -2.8944918132
 C        -2.4983111814       -2.4723184197       -6.6995878964
 C        -2.2584234682       -3.9319988172       -4.6033900978
 O         0.5520943809       -3.1544076253       -4.6133340200
 O        -2.5153782966       -0.4733313787       -5.0249780593
 C        -2.0525995131        0.1301657029       -2.5116586505
 C        -2.3907883874        0.4695142986       -1.0437012529
 C        -2.9676545628        1.7670755199       -0.5185901870
 C        -3.4335764649        1.6672408318        1.1035471074
 C        -4.7011024555        0.8677271156        1.3919534419
 O        -2.1905564615       -0.4363558616       -0.2419205939
 O        -2.8634059769        2.4498817120        1.8196566123
 C        -1.8912904583        3.0111525868       -0.5586419306
 C        -4.1658436359        2.3189280056       -1.2669540090
 C        -5.2318264757        0.8998137278        2.8176867483
 C        -4.3538287753        0.2541782739        3.8734177457
 C        -5.0626957523       -0.2936882405        5.1585129813
 C        -5.7803711649       -1.5968192446        4.7141129460
 C        -5.3231024368       -3.0422068466        5.2266792669
 C        -4.0923760543       -0.4073314229        6.3037328799
 C        -6.2917166536        0.5972177696        5.6530161408
 O        -3.1917888490       -0.0046924938        3.6295754116
 O        -6.6939935159       -1.5498793919        3.9504302695
 C        -3.9630548686       -3.4587276534        4.4459810456
 C        -2.7103810012       -3.4688308254        5.3670959765
 C        -1.4217393401       -4.1043583312        4.7980212099
 C        -0.8320583652       -3.0476723316        3.7372515082
 C         0.6895242539       -3.1210512883        3.4293916313
 O        -2.7390201779       -3.2179599491        6.5530611520
 O        -1.6190898551       -2.3139644703        3.2008556952
 C        -0.4244122598       -4.2821500215        5.9611670477
 C        -1.6581607971       -5.4032919366        3.8972491666
 C         1.5215569733       -1.9970468950        4.0434042999
 C         1.0319378970       -0.5438170948        3.5222823660
 C         2.0176374836        0.3244969398        2.7350766252
 C         1.7642930762       -0.3516791817        1.2443859528
 C         3.0072780949       -0.8462988000        0.5036937968
 C         1.5902682521        1.8115934205        2.7144487773
 C         3.5471400622        0.2293442721        3.1773746781
 O        -0.1061816031       -0.1785246646        3.8160139447
 O         0.6587967685       -0.3417152649        0.8715318321
 C         2.8648147545       -1.3488276198       -0.9541936646
 C         4.2872461559       -1.7511264246       -1.3907923680
 C         4.4536459186       -3.0973184592       -2.2121482812
 C         4.2227788814       -4.2514999024       -1.1134350556
 C         5.3050686837       -5.2305512827       -0.6196883249
 O         5.2450248661       -1.0398990485       -1.1234141585
 O         3.1009589279       -4.3192681785       -0.6251222466
 C         3.4011660406       -3.2452088440       -3.2678013039
 C         5.8841144678       -3.2906204352       -2.8179046300
 H         2.5244128925        5.6032852233        1.4509208337
 H         2.1009261842        7.2348787359        1.0609131305
 H         0.9887750357        6.0272630275        1.8994409551
 H         1.0949134169        3.3989887669       -1.2958056859
 H         0.6793667117        4.1350060251       -2.9391877128
 H         1.4666435050        7.8525144238       -1.8470602520
 H         0.6598543379        6.5844563145       -2.7064899566
 H         2.2273513688        7.0124015561       -3.2089025210
 H         4.2384168007        6.7154469471       -1.6582906073
 H         3.4411533258        7.6530337368       -0.3460192783
 H         4.1284681103        5.9325556246       -0.1411487889
 H         2.9550465351        2.5995477462       -3.5213073489
 H         1.8982808414        1.6501240529       -2.4596996621
 H         2.4440808192       -1.0039660885       -6.8801005794
 H         2.1512118534       -2.0043752586       -5.5133097692
 H         0.7875256610        1.2382919397       -7.7048348625
 H         0.9016045374        2.9200600749       -6.9978259400
 H        -0.4014130685        1.8534865240       -6.5880826567
 H         3.3111852760        1.3543213046       -6.8464628100
 H         3.3149707531        2.5673631098       -5.7993800025
 H         3.6501501324        1.0216194484       -5.1423033872
 H         0.5753018826       -2.4394183597       -7.4657017679
 H        -0.3070089645       -0.9548028232       -6.6871006970
 H        -2.5779922833       -1.9267168451       -2.4378938777
 H        -0.8833020009       -1.7876919792       -2.5777361141
 H        -2.4259666987       -1.5582654937       -7.3116465124
 H        -3.5569464628       -2.5583540348       -6.5807154225
 H        -2.0898627180       -3.2499295586       -7.3340279040
 H        -2.7205323309       -4.6495639184       -5.3060429132
 H        -1.4209934907       -4.4527433363       -4.0721344893
 H        -3.0539551112       -3.7406659488       -3.8699900129
 H        -1.2288743610        0.8398435154       -2.8376070767
 H        -2.8733169121        0.4429150116       -3.1658062903
 H        -5.3123053963        1.3738891334        0.7204947411
 H        -4.7163559113       -0.0908814255        0.9095631567
 H        -2.4638594955        3.8009820051       -0.1454908405
 H        -1.7527723226        3.3995594268       -1.5938302591
 H        -0.8934776838        2.8121309798       -0.0394165996
 H        -4.6919765702        3.1809883184       -0.9764958913
 H        -3.9336120057        2.5440125154       -2.3335881085
 H        -5.0060937934        1.6198187262       -1.2215728830
 H        -6.2306162298        0.4751839367        2.8625902857
 H        -5.3546775915        1.9775040254        3.2292674444
 H        -5.0720599243       -2.9701117529        6.2869489196
 H        -6.1003705653       -3.7450213142        5.0993232116
 H        -3.1276872290       -0.8397531428        5.9972102411
 H        -4.5020339489       -0.9874591171        7.1557681036
 H        -3.9248126271        0.5619961672        6.5466760837
 H        -6.0734155411        1.6586273530        5.7988671024
 H        -7.1035200011        0.5131000583        4.9189709451
 H        -6.7598385327        0.2605976914        6.5362957564
 H        -4.0849738606       -4.4851822451        4.0867551577
 H        -3.8825111355       -2.7898307616        3.6067772138
 H         0.9983838008       -4.1371114068        3.8131131851
 H         0.9921573776       -2.9721494485        2.3731731915
 H        -0.7068709386       -4.8993833139        6.8005800857
 H        -0.1458754081       -3.2676610176        6.2604230856
 H         0.4117044764       -4.8806940792        5.5838276388
 H        -1.8496282781       -5.0166787613        2.9268100279
 H        -0.7417274146       -6.0643125581        3.9028978409
 H        -2.5685532978       -5.9587111020        4.0819449465
 H         2.5383322253       -2.2072752710        3.8168742696
 H         1.3793233771       -2.0274735261        5.1657491591
 H         3.7933146741       -0.1591166639        0.7184012810
 H         3.3782590094       -1.8045342140        1.0607225006
 H         1.3879017480        2.3220700655        1.7079559347
 H         2.3623607890        2.4062517886        3.2716189269
 H         0.6389338641        1.9824842620        3.2570878150
 H         3.5680264395        0.6909495483        4.1522897172
 H         3.9103450099       -0.8202756531        3.2698443746
 H         4.2771869318        0.7896817968        2.5234878891
 H         2.1361840484       -2.1848062647       -0.9600075501
 H         2.4532514587       -0.5999165621       -1.6368172032
 H         5.9049845634       -4.7455823447        0.1681929377
 H         4.8086199276       -6.1267242128       -0.3211056807
 H         5.8873647288       -5.6146552739       -1.4776445680
 H         3.0907145277       -2.3224825142       -3.6696602510
 H         2.5180590364       -3.6694249361       -2.9512774808
 H         3.8303552538       -3.8813138983       -4.0500955654
 H         6.0511491768       -4.2644887230       -3.2468623252
 H         6.0471056910       -2.6464059470       -3.7302089986
 H         6.5998893855       -3.1382943049       -1.9667236098
 Na       -1.6964815575       -0.2874624631        1.8462069639
