155

 C        -0.8743377522        6.0799595794        0.8742707746
 C         0.3703802749        5.2585050567        0.5789698360
 C         1.5476443192        5.9469991056       -0.2521105571
 C         2.3940606333        4.7651980220       -1.1503343182
 C         1.6035685277        4.0427646261       -2.2259150079
 C         0.9659227905        7.0713833353       -1.1262112844
 C         2.5233741670        6.5488902364        0.8041390741
 O         0.2942976863        4.0865504007        0.9291535533
 O         3.5458262293        4.5657225582       -0.8994575549
 C         2.4695494757        3.3449072806       -3.2301080133
 C         1.6451232009        2.4993931047       -4.2088815725
 C         2.1878177044        1.8180616393       -5.5518771823
 C         2.1047260594        0.2489874973       -5.1929185330
 C         2.1827493007       -0.6258063726       -6.4467051747
 O         0.4900962014        2.2734644750       -3.9592221822
 O         2.0300885003       -0.1905997816       -4.0698778797
 C         1.1539344789        2.4408686605       -6.4796229273
 C         3.6541081438        2.2309183102       -5.9009397726
 C         0.8299724456       -1.3213531130       -6.6993371620
 C         0.2556139844       -2.1306291545       -5.5212847787
 C        -1.2779486126       -2.2778757384       -5.2262469128
 C        -1.8908385513       -0.9362740475       -4.8005060008
 C        -2.5911067880       -0.7624130830       -3.3681751664
 C        -1.9310948627       -2.7081470286       -6.6234002465
 C        -1.5109468808       -3.4816831971       -4.1745949445
 O         0.9985812390       -2.7576235637       -4.8274369225
 O        -1.9847715701       -0.0430307069       -5.5597540480
 C        -1.9514311942        0.5007642873       -2.6810193834
 C        -2.3796406847        0.6776428562       -1.2029337123
 C        -3.3995055084        1.6751641611       -0.6580155399
 C        -4.0198653088        1.0030874106        0.6001383692
 C        -4.7511667048       -0.3221501486        0.3931986036
 O        -1.9270685934       -0.1350286413       -0.3823324271
 O        -4.0919186032        1.6383127144        1.6253369212
 C        -2.6777029298        3.0085990933       -0.1112688267
 C        -4.4154682274        1.9535756873       -1.8747158861
 C        -5.6029584090       -0.6019319411        1.6777871547
 C        -4.7593364748       -0.5157414380        2.8424359097
 C        -5.4117846238       -0.4296358658        4.2335475141
 C        -5.5701855161       -1.9917067173        4.5278763019
 C        -4.7898990560       -2.7921214230        5.6043243674
 C        -4.4153013152        0.3055081856        5.1450649027
 C        -6.7594007811        0.2797276065        4.2681257263
 O        -3.5399145098       -0.7483940039        2.8272545256
 O        -6.3815264068       -2.6036194624        3.8025737828
 C        -3.8251075454       -3.6261313381        4.8650410948
 C        -2.4082923941       -3.6549735196        5.5213200126
 C        -1.2549499130       -4.5064667614        4.9304171623
 C        -0.7412288824       -3.7103145638        3.6704656387
 C         0.7577859641       -3.4746943977        3.4176305327
 O        -2.2406389884       -3.0772749668        6.5788649192
 O        -1.4986921799       -2.9572165463        2.9830703332
 C        -0.2074693048       -4.5806167177        6.0512742378
 C        -1.7057310074       -5.9158302443        4.4150941603
 C         1.3938166406       -2.2309211376        4.1994201753
 C         0.7424730547       -0.8955636921        3.7854109812
 C         1.6237773179        0.1028701469        2.8888541902
 C         1.5076604026       -0.4009372913        1.3302818360
 C         2.6967888524       -0.2977723599        0.2800045327
 C         0.8767781551        1.4074151499        3.0531220921
 C         3.1105990660        0.3165189374        3.4032318425
 O        -0.3866210782       -0.5344955693        3.9816752554
 O         0.4221339529       -0.7059565585        0.8572683270
 C         2.6136756306       -1.3446356947       -0.8916880899
 C         4.0716936521       -1.4241781880       -1.6274029216
 C         4.5711129146       -2.8037302047       -2.2071669908
 C         5.2563731051       -3.5399706756       -0.9954849257
 C         5.9592939578       -4.8085080976       -1.3286858433
 O         4.7603594342       -0.4460918716       -1.6276027619
 O         5.3200289394       -2.9581704841        0.0764956405
 C         3.4500619895       -3.5479111842       -2.8723480259
 C         5.7520869030       -2.5194852520       -3.2598013607
 H        -1.7598526436        5.5546411494        1.4209942458
 H        -0.6596385036        6.9867363241        1.5336750425
 H        -1.2594015211        6.4308752045       -0.0562023166
 H         0.9944555979        3.2399355926       -1.6720280646
 H         0.8251520584        4.6669554166       -2.7690300525
 H         0.4935108937        7.8831065320       -0.5236647414
 H         0.1774831701        6.7204404875       -1.8671105111
 H         1.7252127895        7.4665791799       -1.7955569822
 H         3.5391664091        6.6377744047        0.4906951052
 H         2.2533524959        7.6353595452        1.0747811243
 H         2.4637339906        5.9756529929        1.7357180078
 H         3.0787810865        4.1379457016       -3.7390249471
 H         3.2192690168        2.7010910056       -2.7325829864
 H         2.4385574597        0.0183017370       -7.3060040388
 H         2.9847622882       -1.3808601019       -6.3861388332
 H         1.2540633295        2.1291533390       -7.5558554533
 H         1.2122155512        3.5415766705       -6.4616887023
 H         0.1858183827        2.0780007404       -6.1218940240
 H         3.9662186485        1.8511960011       -6.8725122766
 H         3.7544465408        3.2948720704       -6.0966516921
 H         4.3479164290        1.8712255079       -5.1154683466
 H         0.8572815707       -2.0991000790       -7.4846053188
 H        -0.0061780876       -0.8083604679       -7.1747637266
 H        -3.6173254442       -0.5512213655       -3.5403352683
 H        -2.5706116216       -1.6133568256       -2.7612859294
 H        -1.9863289734       -1.7161796491       -7.2021801163
 H        -2.9494394332       -3.0047931850       -6.5578141290
 H        -1.3351090679       -3.5178261284       -7.1153242016
 H        -1.1243954577       -3.2538921897       -3.1828747053
 H        -2.5796182373       -3.5704555330       -4.0841187104
 H        -1.2742327761       -4.4301358006       -4.5049990897
 H        -0.8944136068        0.3094101852       -2.5899751195
 H        -2.0683835313        1.3856284072       -3.3577438055
 H        -5.4197915380       -0.1095042161       -0.4833610252
 H        -3.9511562839       -1.0260379528        0.1809410478
 H        -3.4467736590        3.4944894835        0.5556015865
 H        -2.4975317314        3.6295802119       -1.0333876611
 H        -1.7372086958        2.7911553479        0.3436279933
 H        -4.8330151822        2.9604188312       -1.6632943914
 H        -3.8717939035        2.1370406989       -2.8325856464
 H        -5.2710618875        1.2675503075       -1.9349524463
 H        -6.0353389170       -1.6982867141        1.6008299920
 H        -6.3770726353        0.1023302075        1.7598876930
 H        -4.2487566571       -2.3426487386        6.3925546477
 H        -5.5174530317       -3.4170049650        6.0400449474
 H        -3.6390169698       -0.2701126111        5.6726399248
 H        -4.8597258121        0.9178830413        5.9405222534
 H        -3.9492561829        1.0135255497        4.5932136275
 H        -6.8203877355        1.2708052299        3.7861772056
 H        -7.6088830444       -0.4189143215        4.0247774385
 H        -6.9526237563        0.5322301750        5.2984524326
 H        -4.0646247635       -4.6588691193        4.7964836037
 H        -3.6798331991       -3.3794399979        3.7836752936
 H         1.3913021776       -4.3745848717        3.6690571031
 H         0.7947073500       -3.2614983891        2.3731264246
 H        -0.5018253748       -5.4122156465        6.6857883373
 H        -0.1549203387       -3.6295419303        6.5969908634
 H         0.7879639658       -4.9548164444        5.7149898882
 H        -2.5063995866       -5.8636749191        3.6897839946
 H        -0.7130546495       -6.3494715868        4.1241757089
 H        -2.1053195547       -6.5164570840        5.2316962895
 H         2.3869006510       -2.2273147210        3.9007365230
 H         1.2978879682       -2.1097805954        5.2557437114
 H         2.6253850762        0.7775182251       -0.0382008673
 H         3.6407475769       -0.4844946157        0.7745613283
 H         1.6165211891        2.1594775010        2.8906923083
 H         0.4688762520        1.5283878681        4.0136867894
 H         0.1543626751        1.5510381043        2.3315807287
 H         3.1662256988        0.9859107467        4.2342340298
 H         3.6920292647       -0.5800914680        3.7425756375
 H         3.6281767046        0.8174151525        2.5865146789
 H         2.2641043020       -2.2235618522       -0.3372823842
 H         1.8545776384       -1.1388263817       -1.6106068267
 H         6.9773552740       -4.5077467569       -1.4794726910
 H         5.9481106403       -5.4129108497       -0.4528041637
 H         5.6258020388       -5.2744219630       -2.2771450304
 H         3.1979551129       -3.0655287958       -3.8562038923
 H         2.5696025848       -3.5697912042       -2.2109248365
 H         3.7285521578       -4.6660426751       -3.0464778273
 H         6.2969165998       -3.4122503628       -3.4094865182
 H         5.4154160850       -1.9652062028       -4.1738208204
 H         6.4887886312       -1.8458091564       -2.8133180885
 Na       -1.6032588817       -0.3888775685        1.9493724116
