155

 C        -1.0511681729        7.9393163617        0.7049534202
 C        -0.1547755728        6.7605873136        1.2766073787
 C         1.4176305796        6.7554514851        1.2405700900
 C         1.8324655005        6.3150814379       -0.1868820933
 C         0.9658508639        5.4084318400       -0.9813045223
 C         1.9972822075        8.0931363352        1.5273649010
 C         1.9319937335        5.7524091162        2.3811372876
 O        -0.6941465344        5.7098169632        1.6051924591
 O         2.9221582348        6.6328619309       -0.6487195107
 C         1.8188622679        4.5447230380       -1.9776603184
 C         1.0075568973        3.8318353730       -3.0090196317
 C         1.9224596903        2.9728827667       -4.1171575405
 C         1.1195297207        1.7651582276       -4.6357594336
 C         1.2751496692        1.4613888335       -6.1244641422
 O        -0.1833136264        3.9547653987       -3.1130698982
 O         0.4728792289        1.0444577505       -3.8374064167
 C         2.2028676179        3.9746668981       -5.2694865541
 C         3.2090234191        2.3738385562       -3.4667800257
 C         0.8637919531        0.0908001379       -6.7740245098
 C         1.1312148838       -1.1156599382       -5.7627919922
 C         0.3721842972       -2.4129020797       -6.0360595577
 C        -1.0710562725       -2.4077868744       -5.5169605883
 C        -1.2421283157       -1.9433419033       -4.0820398464
 C         0.2782529985       -2.6756232765       -7.5481918491
 C         1.1323668374       -3.6548179287       -5.3654591500
 O         2.1299395123       -1.0459112887       -4.9869003307
 O        -1.9964997859       -2.7611757453       -6.2316841403
 C        -2.5851930646       -2.0649087664       -3.5087439765
 C        -2.6148789316       -1.3703675397       -2.1581305492
 C        -3.3201634890        0.1026793503       -1.8933710673
 C        -4.2304231727       -0.0645946288       -0.5805576554
 C        -5.0975146680       -1.3561365434       -0.3865402763
 O        -2.2878702971       -1.9531339991       -1.1385888659
 O        -4.1858145042        0.7526037300        0.3291723547
 C        -2.2329586043        1.2435946097       -1.6531147795
 C        -4.3068502049        0.2983554913       -3.1553293708
 C        -6.0616444119       -1.3182584668        0.8221396253
 C        -5.2474913368       -1.5921200996        2.1568065332
 C        -5.9512405722       -1.6669604286        3.5461149114
 C        -5.3186293285       -2.8269012249        4.3919385653
 C        -3.7540619384       -2.7511526227        4.7049578012
 C        -5.5131767094       -0.2488628495        4.0827809539
 C        -7.5071141045       -1.7316405086        3.4601190114
 O        -4.0289472580       -1.6237045779        2.1377007455
 O        -5.9743843990       -3.7654618829        4.6376518535
 C        -3.5589349271       -3.9676111588        5.6572273928
 C        -2.1112421099       -4.4497817093        5.6575682088
 C        -1.5114225881       -5.1556762665        4.2577582306
 C        -0.9242025025       -4.0153206451        3.2136458077
 C         0.4726115225       -3.4338992778        3.1860242494
 O        -1.4644669417       -4.4485821989        6.6338326321
 O        -1.7441979847       -3.5392097014        2.4834272015
 C        -0.3614466168       -6.1471302510        4.6314587216
 C        -2.6049719553       -5.9305721051        3.6046073277
 C         0.6253241635       -2.3342841730        4.1729358228
 C        -0.0133456881       -0.9331641972        3.6884242570
 C         0.9249266116        0.1758090579        2.8226615450
 C         1.3196852436       -0.5840528093        1.5379662422
 C         2.8459318643       -0.6270828928        1.1755591187
 C         0.1446133074        1.4893716490        2.5623878450
 C         2.1133737978        0.5079355872        3.8019045057
 O        -1.1182768529       -0.5922888525        4.0228837451
 O         0.4550869797       -1.0820187306        0.8479240837
 C         3.2564357337       -1.2013469391       -0.1081371495
 C         4.5861757670       -0.5546837720       -0.6069109695
 C         5.4352752765       -1.3708132829       -1.6106672874
 C         6.0710040764       -2.6237444893       -0.8774788230
 C         7.5448211101       -2.4646386606       -0.4738361894
 O         4.9432188951        0.5219330779       -0.1029047470
 O         5.3953245809       -3.5940184538       -0.6315517914
 C         4.5663769866       -1.8915463147       -2.7976723447
 C         6.4278537535       -0.3708851443       -2.2311789682
 H        -1.9603860369        7.7058631448        0.2855631202
 H        -1.1984136540        8.6417837204        1.5409566111
 H        -0.2959210451        8.4659673782        0.0726189259
 H         0.4022060244        4.7625967833       -0.3250896749
 H         0.1435374521        5.8248226485       -1.4994067027
 H         1.8326415970        8.3385182289        2.6195082750
 H         1.5305030146        8.8989815922        0.8688704232
 H         3.0624084470        8.0136655589        1.3099009041
 H         1.1172583626        5.0145044996        2.4889977516
 H         2.9270999462        5.4086050249        2.1832078781
 H         1.9130065649        6.2669198898        3.3392263768
 H         2.4618865729        5.2031035517       -2.5098429845
 H         2.4315816396        3.7954280865       -1.5089053241
 H         0.8403045965        2.2294030699       -6.8003728117
 H         2.3367487784        1.4821547019       -6.4149575134
 H         2.8584805379        3.5596537656       -6.0055893067
 H         2.7323187059        4.8906058129       -4.9158470492
 H         1.2827523573        4.4148874219       -5.6428042979
 H         3.6846296056        1.8772664801       -4.3120524937
 H         3.8858588493        3.1853995932       -3.2331228704
 H         2.8580368729        1.7701120522       -2.6400124114
 H         1.3306766758       -0.0941842945       -7.7986092443
 H        -0.1592908811        0.0670500583       -7.1242536069
 H        -0.4926243942       -2.6069090625       -3.5888607322
 H        -0.8897376385       -0.9017350781       -4.0535637321
 H        -0.3551752588       -1.8631234817       -8.0175851767
 H        -0.3276945938       -3.5318824418       -7.6478574769
 H         1.2395662945       -2.8777981059       -7.9721748876
 H         2.0518245451       -3.8353065514       -5.9409408507
 H         1.4507537723       -3.5259036057       -4.3543692187
 H         0.4812426494       -4.4893354530       -5.4001768916
 H        -3.3660258040       -1.6777934071       -4.1976525878
 H        -2.7968763139       -3.1785715305       -3.3366508198
 H        -5.6866303525       -1.6514159574       -1.2623622366
 H        -4.4299530363       -2.1978791184       -0.0820229306
 H        -2.7913001122        2.0464715638       -1.1085969217
 H        -1.6361482521        1.7249201082       -2.4639286032
 H        -1.5627070405        0.8430049023       -0.9991058263
 H        -5.0012183528        1.1519818973       -2.9544193522
 H        -3.6965445051        0.5603972922       -4.0377263829
 H        -4.8921189496       -0.5892865670       -3.3598404965
 H        -6.8519204902       -2.0390177319        0.6915272590
 H        -6.4567228538       -0.3023383555        0.7562338735
 H        -3.1506433619       -2.7658616806        3.8245321412
 H        -3.5821071016       -1.8246274091        5.2225590845
 H        -4.4425982146       -0.3168866278        4.1397418330
 H        -5.9498855111        0.0052738247        5.0495556265
 H        -5.9977306430        0.4595972892        3.3909693311
 H        -7.9548988661       -1.3168705665        2.5310482738
 H        -7.7830910221       -2.7840775324        3.5106584859
 H        -7.8898223012       -1.1844459363        4.3589260798
 H        -3.7777612651       -3.6476386644        6.6206065971
 H        -4.1368995784       -4.8323078495        5.6343607129
 H         1.1953365292       -4.2295452994        3.3863394607
 H         0.5787088029       -3.1610781725        2.1497900183
 H        -0.6965700191       -7.1877657874        4.6420864609
 H         0.1930028540       -5.8632494910        5.5565558261
 H         0.4682036006       -5.9179437840        3.9196368438
 H        -3.4436162122       -5.2453065080        3.4739215680
 H        -2.5102089421       -6.3180309185        2.6016013217
 H        -2.8961147348       -6.8294775672        4.0904602365
 H         1.6016403638       -2.2457039779        4.5663432336
 H         0.1016396755       -2.6147510245        5.0356967649
 H         3.2026771936        0.4287174191        1.2267739098
 H         3.3297405090       -1.0461156579        2.0886292461
 H         0.7657194354        2.3149155765        2.2208651644
 H        -0.3113662997        1.9441236173        3.4765312850
 H        -0.7300869892        1.3607448439        1.8407959299
 H         1.9179871299        0.6669835256        4.7857611231
 H         2.9086056857       -0.2831268378        3.8879994666
 H         2.6425083827        1.4117231936        3.4938457553
 H         3.4002193557       -2.2725513431       -0.1569472589
 H         2.4163828632       -1.0487659099       -0.7676640056
 H         7.9574929151       -3.4278963161       -0.2482704642
 H         8.0810899337       -2.0546180805       -1.3008186189
 H         7.6684256169       -1.6938455720        0.3038606842
 H         3.9035168823       -1.0406716385       -3.0433889095
 H         4.0224660925       -2.7761158690       -2.5582258750
 H         5.1593320502       -2.2484827853       -3.6974620388
 H         7.1916928402       -0.7707552992       -2.8647955308
 H         5.9449779756        0.4282095934       -2.8416733165
 H         6.7749826226        0.3151909726       -1.4615680141
 Na       -1.7969778847       -1.6419764237        1.0037726872
