155

 C        -0.9531151844        8.3618140148        1.1056889546
 C        -0.1804763338        7.1118143042        1.3336103671
 C         1.3539400079        7.0512839511        1.2488903389
 C         1.7095449143        6.6081013412       -0.1711502943
 C         0.9013168841        5.5446784368       -0.9008946919
 C         2.0721054870        8.4850224809        1.5396941219
 C         1.8234901839        5.9709762487        2.2098692569
 O        -0.8088104328        6.1170823911        1.6674919706
 O         2.8374554503        6.9283010558       -0.5676295247
 C         1.8504085404        4.5897744351       -1.6927948768
 C         0.9311679006        3.8074570474       -2.6531848272
 C         1.5547140493        3.1934885015       -4.0451815618
 C         0.6161803313        2.0794112014       -4.6362472644
 C         0.7876817559        1.7804126265       -6.1167399144
 O        -0.2404109669        3.6480088735       -2.4179401235
 O        -0.1936892027        1.4676107787       -3.9399564683
 C         1.6850649635        4.3536030425       -5.0163849830
 C         2.9808826077        2.5421169341       -3.8190074893
 C         0.3705901524        0.2996680425       -6.4113101882
 C         1.4356191594       -0.7058724227       -5.8264868422
 C         1.1021535024       -2.2395615103       -5.9686264279
 C        -0.3046525256       -2.4783163914       -5.2966907220
 C        -0.4386632321       -2.3356584469       -3.8416843746
 C         1.0748379242       -2.7769614450       -7.4594612282
 C         2.2758446204       -3.0087758460       -5.3495860745
 O         2.4968022889       -0.3674168877       -5.3727917517
 O        -1.2807778128       -2.7450851624       -6.0309991565
 C        -1.9679323808       -2.5715494012       -3.4485522115
 C        -2.3388358477       -1.7876324672       -2.0967656833
 C        -3.0893457242       -0.4280753282       -2.0401144090
 C        -3.9888320630       -0.5544197309       -0.7038048189
 C        -5.3350683708       -1.1755844423       -0.5038095953
 O        -2.0571121952       -2.4247968939       -1.0841306754
 O        -3.5032609327        0.0724546168        0.2295050959
 C        -2.2417757767        0.8924468642       -1.8146591149
 C        -3.8787716512       -0.1679121430       -3.3519332976
 C        -5.9830630308       -0.9238102792        0.9106799160
 C        -5.1433369524       -1.5941370353        2.0661924969
 C        -5.9391647253       -1.8687639829        3.4158649429
 C        -5.1703794960       -3.0075458694        4.2259039728
 C        -3.6481826245       -2.8612841843        4.6461980456
 C        -5.8312961482       -0.4657735071        4.1254387155
 C        -7.3920463394       -2.3762861322        3.4454591954
 O        -4.0132706868       -1.9095185065        1.9573725326
 O        -5.7927257956       -3.8817813738        4.7077085206
 C        -3.2503316328       -3.9098597455        5.6722054871
 C        -1.8037589361       -4.4662102616        5.3266155631
 C        -1.7319623111       -5.2774090814        3.8751417023
 C        -1.0711769325       -4.2225360048        2.7778945905
 C         0.3361403122       -3.6782971509        3.0101035376
 O        -0.7908581894       -4.3982177036        5.9507788172
 O        -1.7471880139       -3.8669340126        1.8194920160
 C        -0.7629345316       -6.3363566941        4.0985010623
 C        -3.0474371151       -5.7545252025        3.3331275781
 C         0.6336371455       -2.3955965140        3.8570724979
 C        -0.2798104542       -1.1728265138        3.5114136234
 C         0.4814938070        0.0885346188        2.8935355560
 C         1.1105085253       -0.5331307844        1.6676252282
 C         2.5646963099       -0.5765356863        1.5114439168
 C        -0.5803194179        1.1769494025        2.5152968653
 C         1.4810404796        0.6297325971        3.9192392189
 O        -1.4319852217       -1.1402765101        3.8302300660
 O         0.4277638001       -1.1497287856        0.8615344379
 C         3.0758640996       -1.1134194343        0.1816507054
 C         4.4331406237       -0.5483875517       -0.2569523701
 C         5.2525210799       -1.1726971959       -1.4471281012
 C         5.8834182329       -2.4674977942       -0.7709628968
 C         7.1189201487       -2.2960927744        0.0650719447
 O         4.8785205251        0.3265314752        0.4295905152
 O         5.3458303338       -3.5374870110       -0.9940806667
 C         4.2146420304       -1.5229891453       -2.5244456484
 C         6.3558032736       -0.3050537966       -1.9214981138
 H        -0.4164106332        8.9189592567        0.3088581469
 H        -2.0673710398        8.1880028491        0.9976360415
 H        -0.9152587674        8.9381759232        2.0376938756
 H         0.2282208077        4.9088087950       -0.2711786337
 H         0.2300129996        5.9758772186       -1.7103969852
 H         2.0836484923        8.8187187291        2.6231443381
 H         1.6229720561        9.2744757942        0.8998266802
 H         3.0654637129        8.3551630987        1.0968450656
 H         1.8860244888        5.0862491983        1.6888374370
 H         2.9244537916        6.2128137468        2.3511208446
 H         1.2215715227        6.0013890482        3.0675939865
 H         2.6272365256        5.1560419183       -2.1878370884
 H         2.3712333050        3.9327960586       -1.0067407135
 H         0.0700004726        2.4084099434       -6.6582010587
 H         1.7806332073        1.9807293309       -6.4507566623
 H         2.1383804209        4.0962567853       -5.9896415852
 H         2.2197386553        5.1736029310       -4.5828800099
 H         0.6719489596        4.6694161407       -5.3527032008
 H         3.1838884063        1.7635486302       -4.5369831580
 H         3.6477913796        3.3969172890       -3.6602286764
 H         2.8599024562        1.9662929797       -2.8933326140
 H         0.1712561209       -0.0012998388       -7.4415355865
 H        -0.6612053728        0.2333087502       -5.9191182077
 H         0.1421566046       -3.0967226909       -3.3520685102
 H        -0.0676229901       -1.3325447899       -3.5615116877
 H         0.4183834038       -2.2592700683       -8.1601688555
 H         0.6829388490       -3.8489385684       -7.4867059439
 H         2.0747357071       -2.9042621423       -7.8373273346
 H         2.1601374809       -4.0159471579       -5.6586659967
 H         3.2056806964       -2.5871992764       -5.6412581459
 H         2.2652387145       -3.0306143679       -4.2511475866
 H        -2.6907862506       -2.2803442378       -4.2736732069
 H        -2.1594659122       -3.6427678681       -3.2910636192
 H        -6.0881574606       -0.9211673376       -1.2817537375
 H        -5.1591004815       -2.2753372319       -0.7183106146
 H        -2.8308010746        1.7549161887       -1.6350373069
 H        -1.7761157840        1.0812443908       -2.8292892937
 H        -1.5467552662        0.8935415493       -0.9993048076
 H        -4.5070925409        0.7164952224       -3.2631648918
 H        -3.2089085944        0.0959033772       -4.1715265370
 H        -4.4724253681       -1.0436744100       -3.7010366632
 H        -7.0057917841       -1.2201620016        0.9733402312
 H        -6.0372188375        0.2088005174        0.9569506925
 H        -2.9122976659       -2.7404261084        3.8322511575
 H        -3.6583510954       -1.9480590706        5.2312895492
 H        -4.7564718000       -0.0757319071        4.1234595528
 H        -6.1231479449       -0.6779750879        5.1669928149
 H        -6.4565498767        0.1949771894        3.6474238520
 H        -8.0642580106       -1.7444169236        2.8406617042
 H        -7.4550784545       -3.4287565554        3.1917714809
 H        -7.8241657713       -2.3309714935        4.4606419987
 H        -3.2191753750       -3.4839499550        6.7121810620
 H        -3.9715556149       -4.6742085776        5.6527307183
 H         0.9186951140       -4.4940766575        3.3960392491
 H         0.8813011037       -3.5344079962        2.0079046768
 H        -1.2364606711       -7.2676212706        4.3727550829
 H        -0.0746886216       -6.0984969347        4.9018359512
 H        -0.2680163612       -6.6428954401        3.1123314144
 H        -3.8270143113       -5.0373616960        3.1877510177
 H        -2.8011633338       -6.1581270862        2.4025846692
 H        -3.6410028652       -6.5460069384        3.8481469783
 H         1.6408364514       -2.0930448848        3.6732621778
 H         0.4683558390       -2.5867049381        4.8925163133
 H         2.9534162136        0.4252288099        1.6553829273
 H         3.0077338415       -1.1262147121        2.3298526018
 H        -0.2593165185        2.2288417248        2.2229927457
 H        -1.2272747733        1.3139223383        3.4348206621
 H        -1.2108865320        0.9436166051        1.6272722206
 H         0.9584625170        0.9236984940        4.8509194595
 H         2.2213015901       -0.0375987149        4.2450976505
 H         2.0571834614        1.5079042004        3.6719486270
 H         3.1846190478       -2.2075372224        0.2214295883
 H         2.3710252890       -0.9813649248       -0.5997343796
 H         7.2381026833       -3.1514454721        0.6916881152
 H         8.0195876995       -2.3015759129       -0.5700318076
 H         7.0587204265       -1.3163475999        0.4967813436
 H         3.6423686368       -0.6318269679       -2.8399481260
 H         3.5072166775       -2.2112284367       -2.0997836766
 H         4.6318672927       -1.8720104801       -3.4392747678
 H         7.1045565662       -0.8373609698       -2.4486183366
 H         5.9133257291        0.4849964921       -2.4719969208
 H         7.0324455669        0.0813835305       -1.1080100792
 Na       -1.8615006018       -1.4678461806        0.9569292869
