155

 C        -0.6511156034        8.7751843386        1.0533698992
 C        -0.1748243431        7.3512501466        1.4687539405
 C         1.3547050354        7.0810023095        1.3274442623
 C         1.6985209733        6.6489886809       -0.1676030092
 C         1.2128891628        5.2525717718       -0.6664501368
 C         2.2150763218        8.3723491540        1.6431392194
 C         1.7641047298        6.0984135506        2.3928885589
 O        -0.9708000216        6.4677235350        1.6251364522
 O         2.3343385035        7.3567837833       -0.9524011284
 C         0.8817127234        5.3007230614       -2.1699588476
 C         0.7281039011        3.9073123114       -2.7291774951
 C         1.3768842442        3.5392664177       -4.0650134929
 C         0.7895019895        2.1553672229       -4.6859783184
 C         0.7448235308        2.0502663711       -6.2428182621
 O         0.0291559820        3.1054315075       -2.0981407336
 O         0.3910363632        1.2953194765       -3.9873479719
 C         1.2918945759        4.7056852550       -5.0053569699
 C         2.8785215948        3.2003266091       -3.8511349641
 C         0.6059843927        0.5338986353       -6.7225162256
 C         1.7014486839       -0.3104424776       -5.9272275210
 C         1.5547861448       -1.8480338457       -5.9660758465
 C         0.1059826565       -2.2543376536       -5.4293096897
 C        -0.3376810323       -1.8753236941       -3.9970099127
 C         1.6764717046       -2.4755665852       -7.4370298672
 C         2.5575981826       -2.5286566389       -5.0377253275
 O         2.5976510859        0.2033181217       -5.3399269339
 O        -0.5752064450       -3.0067086269       -6.0954753910
 C        -1.6606469504       -2.3772105011       -3.6665394447
 C        -2.2103375852       -1.9510798280       -2.2584939662
 C        -3.1179661155       -0.7807526510       -2.0161186349
 C        -3.9113096799       -0.7962720075       -0.6111118350
 C        -5.3202602927       -1.4004661773       -0.3545714997
 O        -1.8438425696       -2.6099904932       -1.2985861081
 O        -3.3926714202       -0.2554900276        0.3243588906
 C        -2.3080583896        0.5792723661       -1.8705887410
 C        -4.1065373829       -0.6839724003       -3.2028965306
 C        -5.7821513305       -1.0733888461        1.1059894428
 C        -5.3266805089       -2.0795230277        2.1882804570
 C        -6.0404939905       -2.1529263696        3.5253017951
 C        -5.3391685332       -3.3774659066        4.3991846624
 C        -4.1647109214       -3.1836005524        5.2293574479
 C        -5.9289921097       -0.7891559567        4.1051804748
 C        -7.4910243675       -2.4192468613        3.4033244681
 O        -4.3737186605       -2.7759938839        1.9530227913
 O        -5.9618887801       -4.4060976255        4.2527566697
 C        -3.5684464098       -4.5580402498        5.6914771168
 C        -2.1505446492       -4.6092861650        5.1078238719
 C        -1.8073885937       -5.2780751866        3.6681563895
 C        -0.9801655795       -4.3697968355        2.7475731150
 C         0.4966712268       -3.8533411586        3.0706779495
 O        -1.1938467983       -4.2582008499        5.8327459292
 O        -1.1814709020       -4.2892502078        1.5590947300
 C        -1.0543095931       -6.5381399036        4.0391037992
 C        -3.1209956846       -5.7608151540        2.8531785696
 C         0.5541313945       -2.5826885306        3.9003071473
 C        -0.4366611432       -1.4773253408        3.4907254452
 C         0.2519238408       -0.0047520082        3.0528359167
 C         0.9297281088       -0.2070968507        1.6328871869
 C         2.4096932964        0.1897278526        1.5161210318
 C        -0.9435762336        1.0606150178        2.8219430065
 C         1.1168035237        0.6192738817        4.1033151571
 O        -1.6469926214       -1.6483618488        3.4792162833
 O         0.2808462437       -0.7190876702        0.7212347804
 C         3.1096972524       -0.5880654539        0.2170124818
 C         4.6534426421       -0.2381934630       -0.0075430486
 C         5.3486080796       -0.9839118579       -1.2341432189
 C         5.7865745634       -2.3382678659       -0.6198118195
 C         7.0615796912       -2.4332154392        0.1731107617
 O         5.2656035303        0.5381744683        0.6647429286
 O         5.1130356804       -3.3530796960       -0.7566165966
 C         4.3920809238       -1.0993285359       -2.3954179380
 C         6.6254034416       -0.2164356078       -1.6851674352
 H        -0.4144775747        8.9331981702       -0.0970941173
 H        -1.7422110486        8.8514155149        1.2317073892
 H        -0.0793716887        9.5323799248        1.5590042527
 H         2.0819037349        4.5480620578       -0.6582793416
 H         0.3276130842        4.9506515313       -0.0615932168
 H         1.9718153349        8.9373948181        2.5359834451
 H         2.2568111373        8.9931633683        0.7356493658
 H         3.1988886235        7.8965058952        1.9268050004
 H         1.2454218036        5.1515723823        2.2647467138
 H         2.8419876088        6.1635776045        2.1903991982
 H         1.6734475310        6.4642016391        3.3999666645
 H         0.0150204879        5.9774155691       -2.3592013106
 H         1.6899507423        5.9568003842       -2.5748621535
 H        -0.0986311970        2.6146178772       -6.5458121122
 H         1.6478953940        2.5417258980       -6.6907979680
 H         2.0461978437        4.6794683107       -5.8277621844
 H         1.5154884224        5.6308538967       -4.4164852873
 H         0.2576682986        4.8484799506       -5.3499680120
 H         3.2124903154        2.8194315135       -4.8450186357
 H         3.4891168786        4.0985249495       -3.6202052699
 H         2.9318203657        2.4606442345       -3.0237958522
 H         0.8109138196        0.4499113473       -7.7928030782
 H        -0.3891719537        0.2967479431       -6.4398211546
 H         0.4339495531       -2.1769153096       -3.2663795748
 H        -0.2774647086       -0.7987230255       -4.0127583852
 H         1.1640485077       -2.0033781924       -8.2378628575
 H         1.4097789134       -3.5412452786       -7.3105305326
 H         2.7098500695       -2.3419344848       -7.8773301445
 H         3.2008179833       -1.7748713881       -4.6652867877
 H         2.0665953335       -3.1387392072       -4.2819009030
 H         3.1928393904       -3.1666013616       -5.5954515366
 H        -2.3072100676       -2.0776214959       -4.4286382193
 H        -1.5497926892       -3.4290730939       -3.6662788221
 H        -6.0442482094       -0.9343861538       -1.0507875695
 H        -5.3647380375       -2.4506902412       -0.6119108271
 H        -2.9042510469        1.4003415702       -2.1026764362
 H        -1.5122696277        0.6068851534       -2.6407811187
 H        -1.7920459743        0.7541971291       -0.8665155814
 H        -4.7990034252        0.1401056975       -3.2617036855
 H        -3.5612510478       -0.6856714569       -4.1460195173
 H        -4.7710001634       -1.5239954577       -3.2801684293
 H        -6.9589360339       -1.0077065447        1.2027802482
 H        -5.3573989568       -0.1289516136        1.3465958341
 H        -3.5067234980       -2.4864205136        4.7154066999
 H        -4.4282267071       -2.6165023491        6.1555245864
 H        -4.8865451292       -0.5626480966        4.2255763518
 H        -6.5597800026       -0.6792764452        4.9661998875
 H        -6.2196394275       -0.0413627859        3.3200680291
 H        -8.1059674239       -1.8115457408        2.7618671122
 H        -7.6464082243       -3.4350182206        2.9914860725
 H        -7.9427939130       -2.4433957553        4.3738675727
 H        -3.4274767578       -4.6776813279        6.7854241205
 H        -4.2586946640       -5.3740694896        5.1910488176
 H         0.9497928749       -4.6269511543        3.7519133289
 H         1.0178702119       -3.6172127668        2.1831225280
 H        -1.7281658917       -7.3499800118        4.4386883963
 H        -0.2792810599       -6.2814288015        4.7618769808
 H        -0.5598964262       -6.9345488147        3.1725955331
 H        -3.9732374716       -5.1199368463        2.7878198358
 H        -2.7407537146       -5.8061260717        1.8200517868
 H        -3.5278903860       -6.6827479219        3.1866447522
 H         1.5987976527       -2.1377750371        3.7373479983
 H         0.3573874620       -2.8966025086        4.9910288285
 H         2.4491928702        1.2619532540        1.4528430595
 H         2.9651427326       -0.0830646231        2.3668084037
 H        -0.5156873403        2.1157470095        2.6439241672
 H        -1.5681489181        1.1356152187        3.7405281596
 H        -1.6878121410        0.8430546173        2.0717786457
 H         0.5608859311        0.5172492948        5.1176159585
 H         2.0161128429        0.0647825156        4.2747605296
 H         1.3303492658        1.6558298269        4.0150929400
 H         2.9245643260       -1.6292051192        0.3673253104
 H         2.4984176335       -0.1934168828       -0.6688711053
 H         7.3190699822       -3.4998244037        0.0313494020
 H         7.8589716128       -1.8646241182       -0.2976071793
 H         6.8863867410       -2.2402008103        1.2382376874
 H         4.1368396930       -0.1604871708       -2.7707126927
 H         3.4357769354       -1.6244182519       -2.2121631467
 H         4.8809026047       -1.6776350779       -3.1254773165
 H         7.1973472936       -0.8277671734       -2.4311672057
 H         6.4401990331        0.6564015096       -2.2980328769
 H         7.2832102038        0.0180914773       -0.8643744292
 Na       -1.6728266128       -2.0421434774        0.8498723693
