155

 C        -0.6343306368        8.8781442337        0.9652854464
 C        -0.1011048568        7.5074371966        1.3255221901
 C         1.4050192891        7.1392758585        1.2902397666
 C         1.7150743208        6.7100172842       -0.2375067827
 C         1.2517944939        5.2336167876       -0.5967976835
 C         2.3073018869        8.3007124662        1.5997753436
 C         1.6309803116        5.8718786591        2.2435588518
 O        -0.8269077861        6.5682510231        1.6370894411
 O         1.9861998079        7.5885754109       -0.9677577056
 C         0.6669639096        5.2950743120       -2.0230676881
 C         0.7033882143        3.8890492757       -2.6182496125
 C         1.3671828736        3.6541786268       -4.0276847519
 C         0.8589516250        2.3161552633       -4.6650548487
 C         0.8580845108        2.0705802056       -6.1955656215
 O         0.2412262658        2.9600393991       -2.0555704167
 O         0.2541922657        1.4905822778       -3.9754000034
 C         1.0746189249        4.7977211744       -5.1215589540
 C         2.8801626078        3.6440739147       -3.7879131435
 C         0.6361129133        0.6146376504       -6.5733849123
 C         1.6676431721       -0.2874245887       -5.8992070302
 C         1.5466270347       -1.8283583683       -5.9860428037
 C         0.1134434216       -2.3225665257       -5.4825511795
 C        -0.3092516309       -1.7419770620       -4.0488774438
 C         1.8956136637       -2.2690934269       -7.4770302656
 C         2.6419638490       -2.4797672716       -5.0405777120
 O         2.7382557410        0.1918304475       -5.4561725986
 O        -0.6017044507       -3.0552985979       -6.0879504825
 C        -1.7478445426       -2.4079575902       -3.6146534225
 C        -2.1734710257       -1.8396535613       -2.2715166176
 C        -3.1899251157       -0.5803061731       -2.2915358565
 C        -3.8449326139       -0.8365357564       -0.8057800215
 C        -5.2197148101       -1.4605112047       -0.5057719154
 O        -1.8458374078       -2.4092837845       -1.2644044379
 O        -3.1544581544       -0.7284342624        0.2107099255
 C        -2.3902563464        0.7158348158       -2.3207779851
 C        -4.2603733081       -0.5211395950       -3.3326129415
 C        -5.7259091027       -1.3299470316        0.9307306734
 C        -5.1470087390       -2.1386389129        2.0888624053
 C        -6.0227632904       -2.3260725970        3.4835738569
 C        -5.5758611249       -3.5452436203        4.2307522021
 C        -4.3594910208       -3.3460384127        5.2419602661
 C        -5.6923513640       -1.0571785766        4.2858192388
 C        -7.5716642851       -2.4675753634        3.2263774378
 O        -4.1259870122       -2.8039566816        1.9509575733
 O        -6.0437999778       -4.6959975494        4.0896686152
 C        -3.5982046899       -4.6204259871        5.5541833269
 C        -2.1426535360       -4.6790481010        5.0928516795
 C        -1.7311905090       -5.4349183178        3.7079866080
 C        -0.9214809709       -4.4154981685        2.9039397948
 C         0.4525789255       -3.9587819676        3.3254621609
 O        -1.2251244385       -4.2405623411        5.7507151153
 O        -1.2793792361       -4.2683166379        1.7284266529
 C        -0.9136324828       -6.8083727343        4.0157240374
 C        -3.0821483478       -5.7247330053        2.9592271420
 C         0.4488923924       -2.5921633984        4.1165266352
 C        -0.4242288733       -1.4247712922        3.4599597350
 C         0.2750744574       -0.0756588794        3.0913122849
 C         0.9350456923       -0.2631994590        1.6659936138
 C         2.3085832136        0.2645973099        1.4357576149
 C        -0.9245661512        0.8548008940        2.8627331444
 C         1.1938455389        0.4139041593        4.2539247390
 O        -1.5735975952       -1.6082840886        3.1503654367
 O         0.3625169243       -0.7937553837        0.7491365462
 C         3.0042364563       -0.1881822425        0.1202163736
 C         4.5356124920       -0.1248218211        0.0906139456
 C         5.4106177158       -0.8430823312       -1.0330918894
 C         5.7048827154       -2.3196616733       -0.5023604612
 C         7.0735076587       -2.5738131132        0.1468707715
 O         5.0104614528        0.6762486337        0.8586134839
 O         4.9576616474       -3.2223455668       -0.6736489148
 C         4.6202289100       -1.0665043670       -2.2568532682
 C         6.6446825291        0.0115653845       -1.2712089932
 H        -0.2446629203        9.1688536743        0.0709499140
 H        -1.6576313205        8.7577466734        0.8442475050
 H        -0.3264118475        9.6234431029        1.6956343542
 H         2.0193319313        4.5076316779       -0.6603015347
 H         0.4741310172        4.9605371337        0.0697360517
 H         2.5705130878        8.3051255336        2.6337653973
 H         1.8891869079        9.2600962627        1.3159420309
 H         3.2110955771        8.1661395354        1.1224971385
 H         0.9996706201        5.1563326304        1.7194109041
 H         2.6290596989        5.6585432383        2.4687308285
 H         1.0744220110        6.0137777459        3.1909180837
 H        -0.3352624415        5.7220692659       -2.0088223732
 H         1.2255588387        6.0589656245       -2.5688466403
 H         0.1277004028        2.7541679187       -6.7714904469
 H         1.8420018037        2.3576396374       -6.5460905100
 H         1.6998514842        4.5713310324       -5.9650780607
 H         1.3137897581        5.8088861145       -4.7974452688
 H         0.0040904110        4.8223969490       -5.3501609191
 H         3.5116924230        3.4580527616       -4.6562274783
 H         3.0981517229        4.6733291996       -3.5239131832
 H         3.0421102221        3.0549134248       -2.9009512677
 H         0.9926703410        0.5897511385       -7.6197023153
 H        -0.4207690944        0.3859534340       -6.3705210723
 H         0.5371774734       -1.8714267818       -3.3940247330
 H        -0.3061600315       -0.6510786216       -4.2391937122
 H         1.6649017672       -1.5591006514       -8.3062639470
 H         1.4840303513       -3.2133009394       -7.6648523689
 H         2.9311406800       -2.2786228386       -7.6245158145
 H         3.6790420038       -2.2897204085       -5.4366339128
 H         2.5667663668       -1.9976619546       -4.0413211378
 H         2.5212694031       -3.5788583176       -4.9936693976
 H        -2.4442099276       -2.0369777763       -4.4039347437
 H        -1.6044510243       -3.5299655904       -3.6243659071
 H        -5.9831523821       -1.0811659381       -1.1580117328
 H        -5.0817971302       -2.5270124414       -0.8325332468
 H        -3.0986583471        1.5743198853       -2.0351569573
 H        -1.9990431738        0.9899254259       -3.2725557892
 H        -1.5359424677        0.6858973264       -1.7011717452
 H        -5.0278277054        0.2267170871       -3.0832964400
 H        -3.8608372387       -0.1239997316       -4.2440422445
 H        -4.8892467549       -1.3450110792       -3.6389458445
 H        -6.6557592554       -1.7265727290        0.9212088992
 H        -5.7774689140       -0.2358243489        1.1601789020
 H        -3.7010050955       -2.6058496740        4.7327885963
 H        -4.5405672482       -2.8857616710        6.1969396915
 H        -4.6944115992       -0.6719299706        3.9989248768
 H        -5.8141165994       -1.2840369344        5.3722165636
 H        -6.5483741309       -0.3503597124        4.1449633616
 H        -7.9026755391       -1.8380230807        2.4050941286
 H        -7.9891200760       -3.3986915055        2.9968586398
 H        -8.1379056873       -2.0485167884        4.0600111327
 H        -3.4416765285       -4.7729804762        6.6104134353
 H        -4.2118530268       -5.3708135798        5.1898523547
 H         0.8759190815       -4.6854229933        3.9500409036
 H         0.9594534283       -3.5979026769        2.4015764305
 H        -1.6158488506       -7.4433404380        4.4860176531
 H        -0.0537897912       -6.6888955606        4.6817357295
 H        -0.4783044368       -7.2675891797        3.1044311760
 H        -3.6511646935       -4.8495654198        2.5064412851
 H        -3.0498836085       -6.3664779987        2.0821852011
 H        -3.7067194798       -6.2408052818        3.7387136572
 H         1.4807680117       -2.2834805091        4.1539452298
 H         0.0552695362       -2.8058202192        5.0966778548
 H         2.4465249556        1.3830530965        1.5015142906
 H         2.9716530871       -0.1973393589        2.2455097479
 H        -0.6842723697        1.8338240206        2.7367703219
 H        -1.5669789452        0.7778460773        3.6855916098
 H        -1.5609192627        0.4671969612        2.1017474501
 H         0.6401938195        0.5949455628        5.1149948360
 H         1.8954643112       -0.4274695628        4.5671415275
 H         1.7438489745        1.3825623072        4.0490835599
 H         2.7698797572       -1.2883307903        0.1276055176
 H         2.5483536318        0.3122570569       -0.6715858660
 H         7.0437728969       -3.5329258273        0.6605664479
 H         7.8454453908       -2.5281816181       -0.6169341092
 H         7.1207237921       -1.7815280925        0.9028788551
 H         3.9832996120       -0.2314171082       -2.5523053184
 H         4.0325232094       -1.9297214093       -2.1855144447
 H         5.3192570970       -1.3541933880       -3.0661343067
 H         7.3794581446       -0.4880782716       -1.9011544895
 H         6.3627795871        0.8795062244       -1.9479639683
 H         7.0737372463        0.5189843353       -0.3837397379
 Na       -1.7283533084       -2.2665539263        1.0957109447
