155

 C        -0.4967086670        9.0613157947        1.0103850589
 C        -0.1127997231        7.6124737241        1.4885398124
 C         1.4660960286        7.2629565890        1.3627495169
 C         1.4670233069        6.9437088143       -0.1798483258
 C         1.0929446093        5.5569107799       -0.6036529183
 C         2.4106188967        8.4058892773        1.7140526094
 C         1.6797703095        5.9198498185        2.2007736110
 O        -0.9001863876        6.7358358375        1.7835024146
 O         1.6203739764        7.7858139921       -1.0026717373
 C         0.4971370716        5.4072540340       -2.0258067333
 C         0.7041282865        3.9740741022       -2.6307026726
 C         1.1164013179        3.8456443777       -4.1510355187
 C         0.6346050125        2.3958448393       -4.6899261236
 C         1.0302627374        2.1286882346       -6.1514920312
 O         0.5620600162        3.0177702069       -1.9153033255
 O         0.0882188787        1.5348692277       -4.0618470226
 C         0.5198143727        5.0784631135       -4.9899140532
 C         2.6938977477        3.8341880741       -4.1805203645
 C         1.0516000801        0.7004996530       -6.7590079288
 C         1.9788604931       -0.3428046471       -5.9936961451
 C         1.6940937043       -1.7915911652       -6.0883057976
 C         0.2086500943       -2.1938736049       -5.5947343373
 C        -0.1768125683       -1.6621031163       -4.2065417919
 C         1.9576688422       -2.2576294837       -7.5403766863
 C         2.6280423571       -2.5107873410       -5.0733491208
 O         2.9238694622        0.0524763476       -5.3176227615
 O        -0.5399381870       -2.8732590682       -6.2325245461
 C        -1.7233081173       -1.9431485407       -3.9434429299
 C        -2.0911914218       -1.7619603911       -2.4982073661
 C        -3.2736396065       -0.6726079714       -2.1918770583
 C        -3.8634389041       -0.7593454136       -0.8201578888
 C        -5.0005310989       -1.7629618718       -0.5724474992
 O        -1.5654403152       -2.4507041870       -1.6797941385
 O        -3.5061949440       -0.0274398518        0.1060302134
 C        -2.4948995142        0.6967281515       -2.4672250760
 C        -4.4268082352       -0.7998388063       -3.2283957785
 C        -5.7030825662       -1.6691807698        0.7530934439
 C        -5.0974687954       -2.4099038989        1.8913256641
 C        -5.8824528389       -2.4928657976        3.1778271115
 C        -5.3079080646       -3.7490767402        3.9049112243
 C        -4.2373719824       -3.6048080546        4.9606038132
 C        -5.6144292267       -1.0745010630        3.9491926877
 C        -7.4175592240       -2.6620509908        2.9181786081
 O        -3.9121676418       -2.7674122130        1.8311502025
 O        -5.8592475479       -4.8222820858        3.6839839416
 C        -3.7532082605       -4.9655933697        5.3560060600
 C        -2.2467791310       -5.0626270341        5.2064747255
 C        -1.6833297283       -5.7139712324        3.8268859203
 C        -0.8682738960       -4.6071345186        3.1483706666
 C         0.5143327140       -4.0712626344        3.7070095286
 O        -1.4958366632       -4.6942577336        6.1113474184
 O        -1.2435924815       -4.2742984426        2.0204679518
 C        -0.9087281192       -6.9693821201        4.2698855347
 C        -2.8630978239       -6.1933161365        2.9177832942
 C         0.4144564040       -2.7095356299        4.2923011846
 C        -0.4187904978       -1.6206309037        3.6015588127
 C         0.2991212644       -0.3444337500        3.0910135287
 C         0.9592582808       -0.6546357778        1.6757588096
 C         2.1648705967        0.1854513642        1.3625994732
 C        -0.8315200387        0.7586681684        2.9285221681
 C         1.3366917794        0.2198646157        4.1637730352
 O        -1.6177337542       -1.7069234041        3.5046003567
 O         0.3359692918       -1.3955393359        0.9317280030
 C         2.8969056787       -0.2182857222        0.0735178249
 C         4.4035738911        0.1367382502        0.2828328906
 C         5.3992649870       -0.5001390492       -0.7406467229
 C         5.5355729380       -1.9717818151       -0.2113293829
 C         6.9325823427       -2.5276056072        0.3236070034
 O         4.8232529557        0.6065700545        1.3259734209
 O         4.4953849537       -2.5621360630       -0.0928844722
 C         4.8877235832       -0.4919729283       -2.2148901561
 C         6.7190325125        0.2396814161       -0.8048669268
 H         0.0904252253        9.2729005066        0.1118989372
 H        -1.4784359213        9.1292405951        0.7115639398
 H        -0.1901332541        9.7692505104        1.7751170793
 H         1.8937669721        4.8383317663       -0.4418396955
 H         0.3035200781        5.1609229007        0.0256929032
 H         2.0989926534        8.9430138482        2.5913449340
 H         2.7431881405        9.0971768578        0.9380405663
 H         3.2885987598        7.8784828887        2.0235608163
 H         0.6396560703        5.4723427970        2.2998851320
 H         2.2863532898        5.3079248645        1.6278320837
 H         2.1203507258        6.1316149491        3.1993714867
 H        -0.6198039365        5.5503971813       -1.9052655972
 H         0.9293538690        6.1508187717       -2.7696675694
 H         0.4298603477        2.8552095968       -6.7847217926
 H         2.0139340638        2.5371111367       -6.3699432864
 H         0.7123867358        4.7249395151       -6.0069055548
 H         1.1031573543        6.0317457588       -4.8519705595
 H        -0.5754400904        5.1989415129       -4.8178412268
 H         3.0260730716        4.0662623689       -5.2198496954
 H         3.0261722403        4.6932270345       -3.5681638744
 H         3.1316715348        2.8671888563       -3.8401363861
 H         1.4729877612        0.9239956175       -7.7740533475
 H         0.0550727332        0.3140778415       -6.7980111104
 H         0.4336681535       -2.2534869596       -3.5666059866
 H         0.1483572638       -0.6387109253       -4.0936841086
 H         1.0565326153       -2.0611223445       -8.1997805157
 H         2.0913430832       -3.2878323191       -7.6490818795
 H         2.8295467166       -1.7700625427       -8.0228858543
 H         2.4662566515       -3.5880304670       -5.1359669639
 H         3.6721644808       -2.3510954983       -5.2256261631
 H         2.2659969441       -2.2813982792       -4.1317488964
 H        -2.3172529611       -1.4109575622       -4.6546013891
 H        -1.9258281009       -3.0110055562       -4.1709355431
 H        -5.7500519608       -1.7510762928       -1.2997500631
 H        -4.5583803941       -2.7833783435       -0.6187709501
 H        -3.1596403653        1.5912454171       -2.4509250554
 H        -1.8192653150        0.6985031515       -3.2274463432
 H        -1.7746278100        0.7544482569       -1.6460493278
 H        -5.3423954746       -0.2603146722       -3.0079627534
 H        -4.2155174553       -0.3517685820       -4.1567706416
 H        -4.7541039398       -1.7710243290       -3.5032205124
 H        -6.6728873186       -1.9467353382        0.5840803894
 H        -5.6497890310       -0.6486163287        1.1667656380
 H        -3.3175036844       -3.0110940277        4.7022979244
 H        -4.6244084133       -3.0462251163        5.8163684728
 H        -4.6254427224       -1.0738521690        4.3064858409
 H        -6.2348064682       -0.9366903616        4.8181294010
 H        -5.9709602110       -0.2926849853        3.2067748358
 H        -8.1004524698       -1.8608882329        2.7305695451
 H        -7.4464125635       -3.2620327692        2.0410941515
 H        -7.9176776114       -3.2768292761        3.6430289895
 H        -4.0722125462       -5.1959682747        6.3473074226
 H        -4.1697189153       -5.7896683833        4.7291102102
 H         0.8770886167       -4.6910047188        4.5097348253
 H         1.2494459984       -4.0347607554        2.8562012790
 H        -1.5991091451       -7.6742287314        4.6534053966
 H        -0.2151943164       -6.7350682008        5.0846775923
 H        -0.2588473679       -7.2798757193        3.5033499205
 H        -3.5084226363       -5.3363092115        2.6237469964
 H        -2.5793256883       -6.7138902951        2.0044718349
 H        -3.2905464616       -7.0645248066        3.3228503766
 H         1.4571616596       -2.2814088337        4.3949220532
 H         0.1209810602       -2.8382048447        5.3930527686
 H         1.8036968479        1.1888625202        1.0500117765
 H         2.8579207887        0.4215487889        2.2044473583
 H        -0.4289254492        1.6430688643        2.4377537062
 H        -1.0613300828        1.1223103651        3.9328232939
 H        -1.7569760041        0.4257055484        2.4899127150
 H         0.8113329514        0.2470005527        5.0959569372
 H         2.3143978257       -0.3553315116        4.2259970380
 H         1.5981523116        1.2555026141        3.8513054463
 H         2.8281389470       -1.3528564618       -0.0078984390
 H         2.4721623330        0.1957759019       -0.8092544617
 H         6.7508137654       -2.6435412368        1.4078102464
 H         7.2392262172       -3.4293112350       -0.1900027768
 H         7.7277774811       -1.7513986158        0.2708489494
 H         4.8051429250        0.4842937860       -2.5841287140
 H         3.9772628682       -1.0049767544       -2.3700011782
 H         5.6051711743       -1.0055840738       -2.8454803320
 H         7.4985702210       -0.3021550819       -1.3299078621
 H         6.5416212244        1.2699064467       -1.1703031778
 H         6.9364931996        0.5807819972        0.1498160058
 Na       -1.7397841257       -2.1961620431        0.6373625959
