155

 C        -1.3337460450        7.8570425207        1.9569892331
 C        -0.2367315890        6.9201903299        1.4867121325
 C         1.1726947067        7.4847579619        1.1010151041
 C         1.1115552193        7.4256155622       -0.4607651363
 C         1.3669308568        6.1218671592       -1.1835849187
 C         1.3429057378        9.0341985971        1.5333569103
 C         2.2624907553        6.5413814358        1.6933666238
 O        -0.3440736990        5.6943836106        1.5980536630
 O         0.8584155700        8.4031622043       -1.1613934812
 C         0.9688529325        6.1498385259       -2.6680652526
 C         1.1681362245        4.7199490708       -3.2676870716
 C         0.2641946532        4.1616067226       -4.4356247785
 C         0.6544881076        2.7339928055       -4.9162303056
 C         2.1121053229        2.3648110447       -5.0677952399
 O         2.0531171865        4.0565981617       -2.7311412723
 O        -0.1868277041        1.9790164055       -5.3692197558
 C        -1.2042715807        4.1897867084       -3.9466920407
 C         0.4228546189        5.1496875331       -5.5647157278
 C         2.5013803761        1.0386580426       -5.6970046484
 C         2.7951191376       -0.1217575040       -4.7020889255
 C         2.4733593293       -1.5890642747       -5.1440150615
 C         0.8394605341       -1.6973930526       -4.7888104649
 C         0.3098113776       -1.6400417426       -3.3145189865
 C         2.4750529377       -1.8063239511       -6.6236484026
 C         3.1786944345       -2.5982129814       -4.2383871923
 O         3.3248424391        0.0442058369       -3.6058049326
 O        -0.0032506602       -1.7540063702       -5.6361724536
 C        -0.9051157670       -0.7301203944       -3.1167677217
 C        -1.6069097059       -1.0895444455       -1.9053362026
 C        -2.9496958203       -0.2095971822       -1.6336511021
 C        -3.9764117569       -0.9721027621       -0.7411728060
 C        -5.0452396905       -1.8808728717       -1.4260225170
 O        -1.3187123639       -1.9613636267       -1.1045488947
 O        -3.7865147081       -0.8252044526        0.4707136041
 C        -2.2653720670        0.8401517071       -0.7431351928
 C        -3.5153599304        0.5295794942       -2.8741329839
 C        -6.0064694732       -2.7308014039       -0.5760318929
 C        -5.3420362464       -3.5408164182        0.4756220463
 C        -6.2901521117       -4.1947023007        1.5311796507
 C        -5.5358663630       -5.2942700659        2.4575968486
 C        -4.1105008893       -4.8464474424        3.0789834684
 C        -6.7080267996       -3.1348291802        2.5394517552
 C        -7.6691279660       -4.8206128278        1.1063715557
 O        -4.1435456802       -3.7339636130        0.5363111010
 O        -6.0427576331       -6.3315978663        2.8283275021
 C        -2.9685751414       -5.8089600293        2.6595175903
 C        -1.7065383619       -5.8063431509        3.5101604302
 C        -0.3286284442       -6.0329874527        2.7897714235
 C         0.0281272027       -4.5202824520        2.2827436441
 C         0.9869734229       -3.6232480724        3.1031010289
 O        -1.7593627242       -5.6377528463        4.7244454009
 O        -0.4078655789       -4.1469447916        1.2468048505
 C         0.6470686936       -6.4392454225        3.8471124792
 C        -0.4828395542       -6.9883876118        1.6183696639
 C         0.2713570881       -2.9496848634        4.3071007334
 C        -0.9603581274       -2.1223293033        3.7470657160
 C        -0.7835802047       -0.5455492680        3.7224104823
 C         0.1444418241       -0.2679309044        2.3669843635
 C         1.3436950365        0.7051958607        2.2671850196
 C        -2.2407511385        0.2056676102        3.5319620442
 C        -0.1788753577       -0.0753355560        5.0173474395
 O        -1.9821738508       -2.6800835416        3.4654931265
 O        -0.1766658796       -0.8807425671        1.4039229325
 C         2.3215016705        0.2084547381        1.1801381406
 C         3.7880796550        0.3228404214        1.6327891529
 C         4.9440025361        0.5213132345        0.5906032829
 C         5.6107078386       -0.9546918667        0.5146311927
 C         7.0252155795       -1.2071846769        1.1106186270
 O         4.0868273577        0.5919641765        2.7951285182
 O         4.9423005267       -1.8427333122       -0.0114532543
 C         4.4396261049        0.8086969047       -0.8900665850
 C         5.9752301120        1.5915628138        1.1284875534
 H        -1.1869160265        8.7960238849        1.4681094425
 H        -2.3766135742        7.5510090106        1.7431781365
 H        -1.1562273811        7.8666782710        2.9352587013
 H         2.3580208249        5.7650916634       -0.9602361263
 H         0.7702345657        5.3364243430       -0.7142153803
 H         0.7242421585        9.4383802323        2.3489021943
 H         1.1925896926        9.5553210235        0.5684116647
 H         2.3610834274        9.2520467102        1.7038017234
 H         2.2302395190        5.5077518081        1.3951758263
 H         3.1896294425        6.9212021820        1.3360120265
 H         2.3676720843        6.5841048521        2.7902121884
 H        -0.1006909279        6.4459782312       -2.7064352701
 H         1.6504868034        6.8923310909       -3.2546483263
 H         2.5282926659        3.1482196154       -5.6934380502
 H         2.4700634272        2.5437897845       -4.0560596465
 H        -1.9015381521        3.8188500074       -4.7171229590
 H        -1.5379840708        5.1545804138       -3.7314773367
 H        -1.3104002543        3.5870013940       -3.0417211438
 H        -0.1396936638        4.8479578114       -6.4217012547
 H         0.1326133357        6.1773679606       -5.5490984124
 H         1.4385998970        5.2271972531       -5.9095650230
 H         3.3675917663        1.2115306045       -6.4205030886
 H         1.6934750955        0.5335300947       -6.2249268135
 H         0.0309701057       -2.6684679458       -3.1919409275
 H         1.1315997298       -1.4964217436       -2.6272148667
 H         3.2644208062       -1.0612187257       -7.0332547755
 H         1.5158801302       -1.5043580961       -7.1034042272
 H         2.5320607835       -2.8418777549       -6.9047546032
 H         2.7062729185       -3.5840982026       -4.2111459869
 H         4.1216393605       -2.8153751297       -4.6756049594
 H         3.3101558542       -2.1379328311       -3.2116004129
 H        -0.6845242207        0.3103630207       -3.1227388365
 H        -1.6123790276       -0.8602373573       -3.9637667204
 H        -5.6016392268       -1.2157200840       -2.0594758170
 H        -4.5027073316       -2.5006243277       -2.1600340845
 H        -2.9984665419        1.5721126476       -0.2882205450
 H        -1.5376460694        1.3115716909       -1.3035299828
 H        -1.9382696294        0.3006817391        0.1095567166
 H        -4.2370681073        1.2236321025       -2.4627387962
 H        -2.6446794709        1.0429732858       -3.3078871125
 H        -3.9675677136       -0.1555417748       -3.6360963658
 H        -6.3362138992       -3.5795996659       -1.2105288726
 H        -6.7888055338       -2.2125142024       -0.1432357897
 H        -3.8044893262       -3.8599835082        2.7075662667
 H        -4.2133884532       -4.6648888795        4.2037255199
 H        -5.8142588964       -2.5922941827        2.8246200576
 H        -7.0187471361       -3.8159055340        3.3186388883
 H        -7.3058519034       -2.3271431515        2.2543755656
 H        -8.4543271444       -4.0525316193        1.1062561008
 H        -7.6611660664       -5.3334304361        0.1398687505
 H        -7.8280915929       -5.5646929486        1.9303271154
 H        -3.2821544580       -6.8456681216        2.7607649685
 H        -2.8932269376       -5.6457481947        1.6212864660
 H         1.9329272184       -4.0880806888        3.4633482389
 H         1.2922965892       -2.7515016563        2.5103951452
 H         0.1888156430       -7.2601457309        4.4191609663
 H         0.7780294058       -5.6352417353        4.5898260740
 H         1.6052778876       -6.9222116140        3.4642967955
 H        -1.2930858887       -6.6040290712        0.9044896363
 H         0.4310571661       -7.0476537958        1.0746572334
 H        -0.6167832577       -7.9744092552        2.0967529113
 H         0.8832616576       -2.3323685056        5.0351339660
 H        -0.2143158543       -3.6656728101        5.0235018155
 H         0.7709462110        1.6606528937        2.0063533284
 H         1.8889473628        0.9840035329        3.1772871213
 H        -2.1607921476        1.3098674840        3.4418256268
 H        -2.7909213779       -0.0201387968        4.4615918687
 H        -2.8319874673       -0.1256833390        2.7196625006
 H        -0.6833432269       -0.3927921712        5.8838527550
 H         0.7636858369       -0.5844531153        5.2080864527
 H         0.0378145838        0.9979451212        5.1404837315
 H         2.0287940430       -0.7864149573        0.9893780674
 H         2.1754291601        0.8390335923        0.2837155033
 H         7.1541134218       -0.6950672374        2.0374906446
 H         7.1646292121       -2.2911223225        1.0997231209
 H         7.8011108195       -0.8297908289        0.4492233728
 H         4.1714184272        1.8950169571       -0.9821562309
 H         3.5431486955        0.2172952210       -1.0440366169
 H         5.0682956644        0.3999061591       -1.7074602991
 H         6.8739242314        1.3615764486        0.5657605120
 H         5.7443548033        2.6000272196        0.8879981735
 H         6.1639941835        1.2166130405        2.0964354891
 Na       -2.0126267320       -2.5427450477        0.8248901995
