155

 C        -1.4653961062        7.6071082203        1.8311629504
 C        -0.2111105219        6.7924350100        1.3921897639
 C         1.2053765071        7.5704268190        1.1953020148
 C         1.0802326996        7.5553811495       -0.5197429311
 C         1.4711754172        6.1756584567       -1.1157681586
 C         1.2199827030        9.0293379650        1.6489866071
 C         2.4511233133        6.8732514480        1.7667980303
 O        -0.2060793981        5.6065935981        1.2630000982
 O         0.6930258840        8.4895954292       -1.1520783981
 C         1.1283362330        5.9801797904       -2.6290256866
 C         1.1766729835        4.5632011060       -3.1408430053
 C         0.2076512123        4.0913933658       -4.4169820076
 C         0.6074512325        2.7031183814       -5.0031313374
 C         2.0807891762        2.4436748555       -5.1650049069
 O         2.0621238304        3.8234266549       -2.8281346126
 O        -0.2633856212        1.8493235547       -4.9993179638
 C        -1.2410391653        4.0888528402       -3.8868757163
 C         0.3014146925        5.1220051323       -5.5994540403
 C         2.5476500602        1.1143520377       -5.8373483734
 C         2.7824813641        0.0432286667       -4.7448193385
 C         2.4523034843       -1.4636942330       -5.0929910505
 C         0.9131756022       -1.6581092246       -4.7585117820
 C         0.4707313656       -1.6027304010       -3.2950433278
 C         2.7359157952       -1.8689304960       -6.6010680597
 C         3.2574613577       -2.4891918892       -4.2424217103
 O         3.1001572840        0.2844523594       -3.5739367385
 O         0.0304757659       -1.7876833362       -5.5709722771
 C        -0.7959940577       -0.7369065177       -3.2142913085
 C        -1.7128967915       -1.0985197816       -1.9890467606
 C        -2.8583824541       -0.0889742023       -1.4969719778
 C        -3.9777169664       -0.8437954747       -0.6513285013
 C        -5.0753356077       -1.5733439799       -1.4297709160
 O        -1.6091228096       -2.2471088284       -1.5077034313
 O        -4.0215363589       -0.9209416786        0.5827396949
 C        -2.1917693930        1.1518883421       -0.7333887490
 C        -3.6172780305        0.5879898784       -2.8558046888
 C        -5.9945879204       -2.4433932679       -0.5683747829
 C        -5.3351382431       -3.4249790744        0.4225763873
 C        -6.2263608894       -4.1944586754        1.4255178706
 C        -5.3531018610       -5.4424458008        2.4140244668
 C        -4.0531743723       -5.0562174734        3.1126464700
 C        -6.7670459393       -3.2261065547        2.5223537122
 C        -7.2585290957       -5.0789948557        0.6669757290
 O        -4.1556920694       -3.7093986785        0.3743974018
 O        -5.8105497097       -6.5206867216        2.3086060122
 C        -2.8535894744       -6.0406223505        2.6947220842
 C        -1.6414475813       -5.8813287591        3.4812903778
 C        -0.1792329686       -6.0339198630        2.8428818277
 C         0.0315766307       -4.5550654455        2.3132659907
 C         0.9351546952       -3.6545224660        3.1016907221
 O        -1.7917189051       -5.5569343766        4.6531025591
 O        -0.5991466821       -4.1688010195        1.2962352592
 C         0.8648649802       -6.5324116487        3.8498950249
 C        -0.1381191970       -6.9150702227        1.5198452923
 C         0.1702103944       -3.1560848759        4.3801366477
 C        -0.9259104566       -2.1447127052        3.7963128978
 C        -0.7105243712       -0.6168387140        3.7170418699
 C         0.0432952301       -0.4731129512        2.4042258343
 C         1.1500075043        0.5555036023        2.4496653173
 C        -2.1195198047        0.0234933687        3.5377218898
 C         0.0448021787        0.0037380408        4.9621320530
 O        -1.9496948939       -2.6044236172        3.2831524615
 O        -0.3053260259       -0.9636698853        1.3063176137
 C         2.2289564621        0.2493263139        1.3769252516
 C         3.6976743387        0.4526314975        1.8333848570
 C         4.7596756500        0.6076159665        0.8004222608
 C         5.4774729369       -0.9081264960        0.6759721007
 C         6.9309775736       -1.0464209910        1.1222477121
 O         3.9294306423        0.4678688757        3.0335176490
 O         4.8580623541       -1.7892242397        0.1882642797
 C         4.3242040869        1.0743890944       -0.6308213437
 C         5.8811058972        1.6652314490        1.2383752412
 H        -1.7221938524        8.5565886500        1.3189407517
 H        -2.2303385225        6.8996027811        1.7270292524
 H        -1.3439364096        7.6141841651        2.9804179414
 H         2.5461204421        5.9410552861       -0.9060372251
 H         0.9761040146        5.4059938998       -0.4949301004
 H         1.0787538028        9.1050549095        2.7589398615
 H         0.5347703552        9.6931145455        1.0980052689
 H         2.2710100554        9.3867616474        1.4022771886
 H         2.3297955366        5.7931174235        1.6556811211
 H         3.4281021780        7.1676232049        1.2285564736
 H         2.7003975470        7.1003902735        2.7776045532
 H         0.1698781229        6.3563247886       -2.8935423419
 H         1.8563620163        6.4951336817       -3.1481822748
 H         2.5612991327        3.2441256491       -5.7731346718
 H         2.3879079050        2.6227600464       -4.1018518803
 H        -1.9593023121        3.8871782766       -4.6522811640
 H        -1.6436558455        5.0593587412       -3.4948686531
 H        -1.2708213486        3.3612410358       -3.1068877032
 H        -0.4010131107        4.9903097844       -6.4439680548
 H         0.0236258955        6.1464046550       -5.3613370335
 H         1.2763234856        5.3692951437       -6.0244343496
 H         3.5358848345        1.4279168849       -6.0906209030
 H         2.0870205375        0.6686353164       -6.7169271981
 H         0.3875381115       -2.6529083627       -2.9739434128
 H         1.3085944694       -1.1912659073       -2.7522885138
 H         3.7536526250       -2.1211548061       -6.7030551993
 H         2.4644587776       -1.1514807556       -7.3795342526
 H         2.0425063768       -2.7322292121       -6.7876116417
 H         2.7224846851       -3.4379019879       -4.2294701085
 H         4.2408113108       -2.7648525510       -4.7131386297
 H         3.4256172640       -2.0948027436       -3.2677898457
 H        -0.4315018200        0.3201396397       -3.3015896840
 H        -1.3126319046       -0.9219261996       -4.1572025901
 H        -5.7219594564       -0.8302467222       -1.9644649482
 H        -4.5671105916       -2.1144822109       -2.2480733406
 H        -2.7988343905        2.0215351985       -0.7971117826
 H        -1.1722270184        1.3127318505       -1.2306438838
 H        -2.1739952196        0.8706194794        0.3116838853
 H        -4.5232290390        1.1407827426       -2.5161008310
 H        -2.9029307739        1.2339324078       -3.3881614831
 H        -3.8508039910       -0.2550107421       -3.4707618584
 H        -6.7585787348       -2.9617233607       -1.1685969915
 H        -6.4931132679       -1.6840298790        0.1573533136
 H        -3.8008370655       -4.0263513805        2.8803957897
 H        -4.1202705395       -5.0989328126        4.1621210829
 H        -6.1789526995       -2.3099561350        2.4758366668
 H        -6.8572656901       -3.7140896924        3.4814476319
 H        -7.7946230968       -2.8940754240        2.2175838449
 H        -7.9139966512       -4.5564174774       -0.0564130425
 H        -6.5971756607       -5.7351834205        0.0387978144
 H        -7.8116430105       -5.6230654375        1.4226396930
 H        -3.1704914224       -7.1188445459        2.7004875769
 H        -2.5443965505       -5.8248225720        1.6166657643
 H         1.8045837123       -4.1431233797        3.5325326129
 H         1.2619460319       -2.7510753989        2.5760504866
 H         0.7789546461       -7.6255362043        3.8063201940
 H         0.6308616913       -6.2538588824        4.8538187058
 H         1.8915296431       -6.3024358952        3.6372704687
 H        -0.6780098221       -6.5936997903        0.6774418776
 H         0.9586955154       -7.0407246782        1.2346077422
 H        -0.5827764444       -7.8685980233        1.9192627564
 H         0.7320698048       -2.6249247975        5.0837567067
 H        -0.3569726884       -3.9468854403        4.8782528616
 H         0.7902612325        1.5680203348        2.4737450713
 H         1.6292416429        0.4397694584        3.4563290310
 H        -2.1248572249        1.0764976832        3.8433552348
 H        -2.9083368511       -0.5470691801        4.0959831915
 H        -2.4551166041        0.0286735561        2.4193635799
 H        -0.4285080449       -0.3447421560        5.9009510425
 H         1.1071671737       -0.1337303764        5.2191372800
 H        -0.1053933164        1.1046206115        5.0239598557
 H         2.2671503590       -0.7902471132        0.9047381385
 H         1.9189576541        0.9610811513        0.6061604779
 H         7.0715349438       -0.5584529869        2.0946912775
 H         7.2390132846       -2.0851385110        1.0110558339
 H         7.5921360497       -0.5867616987        0.3890789459
 H         3.5042373098        1.7733048772       -0.6613820639
 H         4.1682323190        0.2615107769       -1.3282295612
 H         5.2250323270        1.5006640995       -0.9972618091
 H         6.6996359246        1.6383581169        0.5227273072
 H         5.4251143846        2.6507487727        1.0746209619
 H         6.1772932882        1.3727632666        2.2775740705
 Na       -2.1314732347       -2.3605741970        0.8951329003
