155

 C        -1.4191119162        6.3983657258        1.5556088190
 C         0.0985122988        6.4244744381        1.3704893167
 C         0.9036526668        7.6527859305        0.8577237505
 C         0.9719121668        7.4652321984       -0.7255866912
 C         1.9656118269        6.4475486514       -1.2399618397
 C         0.1810189491        9.0639710494        1.1524732593
 C         2.2722789176        7.5714503372        1.4708742318
 O         0.7137786782        5.4237960432        1.5842889646
 O         0.1909049294        8.1858774323       -1.3318876976
 C         1.6176314115        6.0763774077       -2.6217967487
 C         1.1625856762        4.6394876115       -2.8592938761
 C         0.3771074123        4.3947987740       -4.2000339825
 C         0.6830099212        2.8424551699       -4.5498169058
 C         1.6864056376        2.5050728971       -5.6636032270
 O         1.3147126558        3.7119613301       -2.0782516387
 O         0.1296363198        1.9366191340       -3.9596570907
 C        -1.1283142464        4.5174657748       -3.7865361505
 C         0.6236921211        5.4119571730       -5.2970071245
 C         1.6377874875        0.9620450256       -5.9321678940
 C         2.6473457938        0.2371643095       -4.9027098423
 C         2.5300555942       -1.2914998983       -4.8104408589
 C         0.9349441256       -1.5065505443       -4.8276679712
 C         0.1491827522       -1.0462790213       -3.5202190079
 C         3.1081507972       -2.0890583670       -5.9472644056
 C         3.1200031195       -1.7651688863       -3.4412527325
 O         3.5067681291        0.8750714742       -4.3150535925
 O         0.3816047514       -1.8108260659       -5.8806020723
 C        -1.4439740046       -1.3470312226       -3.6156554089
 C        -1.9004176122       -1.3053524520       -2.1551551636
 C        -2.9199496146       -0.2989074784       -1.6799024851
 C        -3.7552790698       -0.8440232079       -0.4930001564
 C        -5.0891481399       -1.6130523342       -0.7750500592
 O        -1.4651974689       -2.1902875426       -1.3958959876
 O        -3.4284220675       -0.5145433315        0.5989082879
 C        -1.9839352217        0.8383412489       -1.0643040981
 C        -3.8032386942        0.0893899579       -2.8311106903
 C        -5.4851635036       -2.3025115556        0.5442413468
 C        -4.7686578292       -3.6458299569        0.6860514255
 C        -5.7573949767       -4.8651922009        0.6177257492
 C        -4.8477638048       -6.2442354702        0.6073505683
 C        -3.9515526241       -6.5327360969        1.9165385565
 C        -6.7845417823       -4.9088750274        1.7149514181
 C        -6.3439681278       -4.6727903737       -0.8677759299
 O        -3.5649720662       -3.7091832568        0.9447728076
 O        -4.8844878028       -6.9628200595       -0.3192121188
 C        -2.4706645776       -6.5859041682        1.6757171270
 C        -1.6089317361       -6.4807934438        2.8624801398
 C        -0.0656792972       -6.1528750854        2.7237271350
 C        -0.0135651202       -4.5809379322        2.2316183534
 C         0.6358310384       -3.5729644156        3.1401069393
 O        -2.1448972037       -6.4909005906        3.9790620204
 O        -0.5370514701       -4.2146478953        1.1681625547
 C         0.5786820836       -6.5371728535        4.0119991141
 C         0.4754882563       -7.0121207560        1.5670812633
 C        -0.1500835714       -3.2151206786        4.4119582034
 C        -1.2375031179       -2.2901462362        3.9055353273
 C        -1.0400626044       -0.6305280281        4.0494968136
 C        -0.0053273227       -0.2845111905        2.9605882905
 C         1.1508893042        0.6390891387        3.3276880017
 C        -2.3844451239        0.0638934327        3.7627589987
 C        -0.6314737828       -0.3379266298        5.6012517761
 O        -2.3102359388       -2.6254907820        3.4075995794
 O        -0.1974258938       -0.6463709750        1.7968584461
 C         1.9907964852        0.6835213959        2.0903956706
 C         3.4900084735        1.0475239149        2.5089040339
 C         4.6283880885        1.2735728924        1.3132725361
 C         4.9764333887       -0.2713163636        1.0065315878
 C         6.2907380013       -0.8684311994        1.3128097433
 O         3.8346651519        1.3977069562        3.6110901541
 O         4.0985632027       -0.9575107470        0.5274392556
 C         3.9922677136        1.9877023592        0.0969173109
 C         5.8977816965        2.0083606644        1.9220588639
 H        -1.8127587460        6.8554589907        0.6111208864
 H        -1.7692972963        5.3979365461        1.6751349059
 H        -1.7452851423        7.1596771955        2.3856006436
 H         2.9074930935        6.9736549607       -1.2058954415
 H         1.9093212962        5.5974219057       -0.5006204065
 H         0.5831753780        9.2663034253        2.1518666700
 H        -0.9227282947        8.9486571964        1.2864448981
 H         0.1926763902        9.9456137937        0.4126268032
 H         2.9409749361        6.7521065145        1.2005260774
 H         2.8271497004        8.4956871450        1.2635761116
 H         2.1039302327        7.4826152405        2.5591167346
 H         0.8562619015        6.7577693364       -2.8894742721
 H         2.3747795850        6.2144205437       -3.3614722391
 H         1.4544668906        3.0296378861       -6.6162412717
 H         2.6675596731        2.8891841596       -5.3128914572
 H        -1.7861968411        4.3175287855       -4.5934576856
 H        -1.2723882031        5.4822431242       -3.3317315317
 H        -1.3877811737        3.8137544858       -3.0286608089
 H         0.3775463572        5.1319161687       -6.3339542351
 H         0.1129553388        6.4026097393       -5.1623021267
 H         1.7418929639        5.6012127094       -5.4077854352
 H         1.8498465289        0.8415999286       -6.9616253937
 H         0.5714803689        0.6811026218       -5.8649620804
 H         0.6043748083       -1.4316057601       -2.6203490738
 H         0.2348111048        0.0552088184       -3.5504977839
 H         4.0825657813       -2.4690170937       -5.6976293313
 H         3.2978850224       -1.4652383241       -6.8316060197
 H         2.4282780542       -2.9460861818       -6.2976299487
 H         3.0326297464       -2.8743147512       -3.3026950797
 H         4.1747498283       -1.4620262604       -3.3933590807
 H         2.5532196412       -1.3652675459       -2.6264529928
 H        -1.9588087382       -0.6703540314       -4.2586508792
 H        -1.4586552010       -2.3356683086       -4.1167467471
 H        -5.8205577869       -0.7808515277       -1.0720500400
 H        -5.0213186350       -2.3589295147       -1.5064535917
 H        -2.3733393645        1.7809841135       -1.2982857400
 H        -0.9728954112        0.7798183096       -1.5852573732
 H        -1.8015822019        0.7470762861        0.0512397358
 H        -4.6920424080        0.4947754425       -2.3285723368
 H        -3.3167354416        0.6824137981       -3.6011850061
 H        -4.1725902467       -0.8221183895       -3.3237562104
 H        -6.5763924351       -2.3598126343        0.7382743462
 H        -5.1525982529       -1.7030873431        1.4518712414
 H        -4.1051185406       -5.7462369528        2.6636420769
 H        -4.3806717160       -7.4129216253        2.3450581855
 H        -6.4194801865       -4.7545536341        2.7307984596
 H        -7.2372972595       -5.8804318522        1.6883620666
 H        -7.5631567157       -4.0932296503        1.5573969580
 H        -6.5379257472       -3.5779612724       -0.9554073022
 H        -5.6769136978       -5.0986731291       -1.6419993089
 H        -7.3025646969       -5.2240153587       -1.0701134317
 H        -2.2555552626       -7.5181560051        1.1420610817
 H        -2.2673447275       -5.6791005567        1.0002704374
 H         1.5752517313       -3.8814208116        3.5569780389
 H         0.9383214972       -2.6854931062        2.5805283868
 H         0.2641229453       -7.5506361086        4.2243572368
 H         0.3541083810       -5.9910358568        4.9504202538
 H         1.6118732890       -6.6408097517        3.9404675830
 H        -0.0408931000       -6.8109807772        0.6547153438
 H         1.6071169052       -6.9264111901        1.4498856535
 H         0.4277489713       -8.0380621395        1.9220897459
 H         0.4182270720       -2.6656444462        5.2132584996
 H        -0.6038941865       -4.1652834885        4.8905507908
 H         0.7072023679        1.6465165924        3.5545043496
 H         1.7471224020        0.3556379426        4.1976081643
 H        -2.2929723368        1.1820953802        3.8743028852
 H        -3.0957240787       -0.2423500609        4.5875564758
 H        -2.8443857492       -0.1087931234        2.7070146508
 H        -1.3744554692       -0.7134068504        6.3813210873
 H         0.3376300960       -0.7080446388        5.9695771211
 H        -0.6416772792        0.7185152759        5.8041226375
 H         2.1004773792       -0.3591566444        1.6588624801
 H         1.6301168369        1.3083621891        1.1786311658
 H         6.7700508498       -0.5696519291        2.2503581840
 H         6.0387819678       -1.8870559428        1.4557847854
 H         6.9903111196       -0.6989568716        0.4737850639
 H         3.3876869576        2.8271883327        0.3203483787
 H         3.3168144749        1.2238654227       -0.4084460511
 H         4.7299360408        2.2689160562       -0.6581615063
 H         6.7860300563        1.9865877348        1.2490925645
 H         5.5200892419        3.0615058757        2.0200797817
 H         6.0952819855        1.5362953192        2.8731987044
 Na       -1.8008143872       -2.1047527134        0.8111665990
