155

 C        -1.3998530711        6.3011969077        1.4865452987
 C         0.1097909108        6.3590452314        1.5508656220
 C         0.8148854599        7.6696239689        0.8265829550
 C         0.8829773745        7.4109526036       -0.7110412482
 C         2.1198125201        6.5261750763       -1.2627002792
 C         0.0526815760        8.9117679325        1.2190237686
 C         2.2723506868        7.8247442088        1.4279253545
 O         0.7774029864        5.4030431342        1.9526487896
 O         0.1072469738        7.9432290339       -1.4576600021
 C         1.8801203656        6.1217809206       -2.7273224270
 C         1.1224423569        4.7440490378       -2.8495825804
 C         0.3061718265        4.5090173537       -4.1851390405
 C         0.4712177662        2.9814736689       -4.5711398126
 C         1.6209846669        2.5948839247       -5.5428289605
 O         1.2686118945        3.9063778280       -2.0050420412
 O        -0.2270857131        2.1529624673       -4.0392679046
 C        -1.2073597703        4.7057647345       -3.9243843958
 C         0.8658153218        5.3496107944       -5.3602516978
 C         1.7297836943        1.0992343023       -5.8414196019
 C         2.7534720283        0.3480908760       -4.9973416974
 C         2.5353480222       -1.2349926270       -4.7639083468
 C         0.9108081546       -1.5761932506       -4.6606790929
 C         0.1773510552       -1.1741985484       -3.3961554365
 C         2.9969302409       -2.1650642741       -5.9784699966
 C         3.3019979328       -1.6015715977       -3.4223332901
 O         3.7227101038        0.8456474048       -4.5085533038
 O         0.3057396278       -1.9257898140       -5.6487846767
 C        -1.2789593448       -1.4177218418       -3.5886643663
 C        -1.9508902656       -1.5549315712       -2.2695866730
 C        -2.9570920983       -0.3767434477       -1.7929367160
 C        -3.7631183658       -0.7965027564       -0.4900985316
 C        -5.0278964430       -1.6515030312       -0.6701695498
 O        -1.5095399296       -2.3762884552       -1.5110924702
 O        -3.2992981470       -0.4758954764        0.6230241075
 C        -2.0793194947        0.8117670425       -1.6075304979
 C        -4.0093515084        0.1086100728       -2.8784633117
 C        -5.4706698901       -2.3704605825        0.6282572429
 C        -4.7384952229       -3.7165543039        0.6436870311
 C        -5.5627000941       -4.9806454251        0.3143071468
 C        -4.6721492773       -6.2927747202        0.3298182934
 C        -3.9399836881       -6.6030988442        1.6619377434
 C        -6.6762276112       -5.2478379971        1.4219941050
 C        -6.3059512872       -4.8588608753       -1.0322680953
 O        -3.5487986179       -3.6939033463        0.9594710908
 O        -4.6982467968       -6.9514098547       -0.7283724112
 C        -2.3794496194       -6.7465078975        1.3395698774
 C        -1.6535278467       -6.5579931946        2.6491204178
 C        -0.1385965470       -6.2074599315        2.5931482651
 C        -0.0813611700       -4.7049296321        2.3666248667
 C         0.6605790421       -3.8006660796        3.3579036925
 O        -2.2601472735       -6.5750847368        3.6691883146
 O        -0.5851912941       -4.3013457149        1.3435453335
 C         0.5313549564       -6.5464113252        3.9262342802
 C         0.5754810555       -6.9301584782        1.4068115809
 C        -0.2448998547       -3.1742733941        4.5637333620
 C        -1.3639842836       -2.1764532660        4.0292492196
 C        -1.0237556862       -0.6441782051        4.3303430844
 C        -0.0083672004       -0.2872493897        3.1664108625
 C         1.1795027907        0.5658529542        3.4952257441
 C        -2.4357547051        0.2274731750        3.9856072591
 C        -0.5070206484       -0.2631712293        5.7112414458
 O        -2.4048420364       -2.6291657215        3.5418393047
 O        -0.2257943982       -0.6595211249        2.0111201930
 C         2.0293415568        0.8065677370        2.1836157961
 C         3.5036676376        1.2920340448        2.6387290033
 C         4.5731474713        1.4313078902        1.4131000035
 C         4.7202582546       -0.0695152531        1.0645847331
 C         6.0148974323       -0.7251095284        1.4222078682
 O         3.8058651699        1.5058706849        3.7860202107
 O         3.8294582038       -0.8087003933        0.6177257499
 C         4.0599514379        2.1315367687        0.0665779755
 C         5.8895137055        2.1412090819        1.9483487959
 H        -1.6829448914        6.1312222060        0.4447119383
 H        -1.6197604065        5.3534612394        2.0037250527
 H        -1.9228337340        7.1637635393        1.8313952903
 H         2.9970993307        7.1803697962       -1.1884316402
 H         2.2441741591        5.6663863787       -0.6662956365
 H         0.1882891496        9.0883295272        2.2813837814
 H        -0.9864096193        8.8232892076        0.9399381625
 H         0.3401692245        9.7554300782        0.6523801791
 H         2.8037910956        6.8472527760        1.5384788015
 H         2.9635920092        8.4853435265        0.9611592579
 H         2.0382487835        8.1753411368        2.4538066604
 H         1.2977643586        6.9540161811       -3.2553851352
 H         2.8407484890        6.0043130876       -3.3283468100
 H         1.6470267562        3.2747630311       -6.3730347469
 H         2.5461113279        2.6933803370       -4.9921128853
 H        -1.7306254172        4.6000702121       -4.9058612076
 H        -1.3349408602        5.7198603236       -3.5505450959
 H        -1.6893121373        4.0413704327       -3.1719227816
 H         0.2457245426        5.1726623809       -6.2535461869
 H         0.7363298887        6.4098613687       -5.1926872621
 H         1.8783158360        5.2603710427       -5.6743619228
 H         2.0898579229        0.9655058911       -6.9167944454
 H         0.7499689425        0.6394713579       -5.8027657254
 H         0.5947565967       -1.7666483292       -2.5270322565
 H         0.2143315258       -0.0971488534       -3.1673782525
 H         4.0608351930       -2.4534303279       -6.0031479144
 H         2.8479758899       -1.7217706659       -6.9327410678
 H         2.3275371960       -2.9294057654       -6.0020908467
 H         3.2484781767       -2.6354881916       -3.1758711604
 H         4.3308575436       -1.3083966762       -3.5145774278
 H         2.7839154378       -1.0834984150       -2.5818913932
 H        -1.7232463686       -0.6662231979       -4.2851490291
 H        -1.3634178523       -2.3554953150       -4.1462052131
 H        -5.8007197925       -1.0535222984       -1.0232721381
 H        -4.6699510240       -2.4269532173       -1.4348066821
 H        -2.5554131814        1.5672756800       -0.8913065608
 H        -1.8963517109        1.2877119890       -2.5252220091
 H        -1.1242230224        0.5565788596       -1.1486753410
 H        -4.5489798132        0.9774644078       -2.5503396845
 H        -3.3475730757        0.3523157897       -3.7134432874
 H        -4.6809451843       -0.6312485251       -3.3007895075
 H        -6.5594371570       -2.4143030927        0.6731489878
 H        -5.2190320683       -1.7094259766        1.4141696893
 H        -4.1374684900       -5.8539357269        2.4602219063
 H        -4.3758591053       -7.5716449886        2.0780520994
 H        -6.3979226736       -5.9867883135        2.2287053673
 H        -7.6455319395       -5.5877813712        0.9398553285
 H        -6.7902306117       -4.3900285467        2.0858667330
 H        -7.1650004986       -4.2396428934       -0.8979494168
 H        -5.6994618399       -4.5065833107       -1.8518682371
 H        -6.4965202435       -5.8627732281       -1.3585907966
 H        -2.1750666688       -7.7599449180        0.9349579741
 H        -2.1470140490       -5.9743861242        0.6820326073
 H         1.6869747690       -4.1108780935        3.7077638424
 H         0.9084150562       -2.8756706872        2.8506182438
 H         0.2647646777       -7.5395143345        4.2098358541
 H         0.1926376060       -5.9496949906        4.7831675025
 H         1.6327352197       -6.5554981729        3.9329876981
 H         0.1952324041       -6.5964291440        0.3925628547
 H         1.6010339303       -6.8829790079        1.4202650838
 H         0.4807502487       -7.9788968892        1.6563539275
 H         0.4630082024       -2.5942799699        5.2181412250
 H        -0.6934605609       -3.8663775516        5.2451259800
 H         0.9543982082        1.5121567246        3.9429633154
 H         1.7796192143       -0.0432315878        4.1845577842
 H        -2.3308578617        1.2755342730        3.8103578972
 H        -3.0434633686        0.1047028377        4.8276162917
 H        -2.8998413042       -0.1681649377        3.1416508468
 H        -1.0625734119       -0.8346238620        6.4205441412
 H         0.4685752772       -0.6068812953        5.9315766661
 H        -0.6441403293        0.7730375884        5.9986552130
 H         2.0762462810       -0.0008781303        1.4866189605
 H         1.7063765140        1.6538291882        1.6582989293
 H         6.1766687153       -0.8420638294        2.5004927157
 H         6.0079501422       -1.7692336192        1.0334742971
 H         6.8413440896       -0.0820556718        1.0995797518
 H         4.3975308392        3.1712858794        0.0404470765
 H         3.0261792950        2.2150189421       -0.1351979632
 H         4.5344382076        1.6337371474       -0.7522082290
 H         6.6018248425        2.2163762638        1.1046749153
 H         5.6518024203        3.1364804150        2.2018087704
 H         6.3699455588        1.4613541287        2.6492043140
 Na       -1.5402938079       -2.2682285598        1.0421639110
