155

 C        -0.8174778895        5.1615923549        1.3772225435
 C         0.3403983089        6.1093005577        1.6723232213
 C         0.5033320695        7.3865726945        0.7527762138
 C         0.6899943467        6.8875463984       -0.7052482860
 C         2.1867908308        6.3876707843       -1.1018786703
 C        -0.7985267463        8.3150409652        0.9300524937
 C         1.7347355697        8.2706309028        1.2134197438
 O         1.1965852368        5.9171408400        2.5224080807
 O        -0.2862838552        6.8124132349       -1.4485186826
 C         2.1308630135        6.0611760642       -2.6024327726
 C         1.2078991854        5.0111788519       -3.1008494225
 C         0.4629118062        5.0334615349       -4.4812231046
 C         0.0972150803        3.5342129245       -4.8336117532
 C         1.3058826874        2.6253316561       -5.0771234876
 O         1.0087153607        4.0377911496       -2.3578446534
 O        -1.0363580569        3.0742406404       -4.8621454921
 C        -0.9351743936        5.8044564070       -4.4192063992
 C         1.4471035788        5.6076486194       -5.5160817340
 C         1.0818062661        1.1189641523       -4.6477495355
 C         2.5240286714        0.3980198445       -4.4412585584
 C         2.7754646364       -1.2258901568       -4.6791104590
 C         1.3934171829       -1.8751072301       -4.4789894360
 C         0.7271867606       -1.9300546312       -3.0229150558
 C         3.2163705630       -1.3137809948       -6.1418748313
 C         3.9064211294       -1.6465326304       -3.7282911095
 O         3.4352828540        1.0471840818       -3.9891312705
 O         0.6461821067       -2.0201161934       -5.4308121666
 C        -0.8579235113       -1.5243666396       -3.1081873239
 C        -1.4422556918       -0.9633477442       -1.8172530685
 C        -3.0668053315       -0.4062388369       -1.7791620826
 C        -3.9021194134       -0.9276672894       -0.6569155614
 C        -5.2988061604       -1.6387752325       -0.8972930087
 O        -0.8364639678       -1.0378485313       -0.7669812543
 O        -3.5078105988       -0.9389810834        0.4936535865
 C        -2.7956045303        1.0956913350       -1.5785656250
 C        -3.7266785387       -0.6067805759       -3.0765609411
 C        -5.5493922924       -2.8357490814        0.0344719539
 C        -4.5621570076       -4.0317116687       -0.1733265684
 C        -5.0305230172       -5.3355944045       -0.8594362485
 C        -3.7045884213       -6.1517889257       -1.0424930257
 C        -3.0712621322       -6.9200932802        0.2831723847
 C        -6.0929055172       -5.8848337691       -0.0057959830
 C        -5.6717172077       -5.0286987890       -2.2673119448
 O        -3.4215754931       -3.9964659305        0.2615700825
 O        -3.1239580126       -6.3319093890       -2.1177877758
 C        -1.6756400064       -6.5468747449        0.5577778763
 C        -1.2126789151       -6.9331852502        1.9392389426
 C         0.1177802454       -6.3361121478        2.6321391500
 C         0.0248414632       -4.8893329288        2.8846335538
 C         0.2606376299       -4.1061963628        4.2075142710
 O        -1.8641839810       -7.6489786336        2.6316175738
 O        -0.3149396741       -4.1984311950        1.9564840824
 C         0.5350614714       -7.3024581397        3.7649462105
 C         1.2810667775       -6.5676828044        1.5145532254
 C        -1.1089316482       -3.8700683721        4.8874319629
 C        -1.7146546609       -2.5206488477        4.4605328125
 C        -1.0692247290       -1.0695323850        4.8874042540
 C        -0.2146674920       -0.5330098832        3.7433127037
 C         0.8041917921        0.7573210502        4.1407439472
 C        -2.2876756467       -0.0126146756        5.1456453673
 C        -0.2601219454       -1.2573021603        6.3481111792
 O        -2.7225977254       -2.4492803509        3.7791568308
 O        -0.3093664702       -0.9648603781        2.6184905758
 C         1.3765692928        1.4235961963        2.8585512006
 C         2.8704760514        1.6950089423        3.0916501757
 C         3.7403079733        2.0682448634        1.9287843253
 C         4.1818691486        0.6825549101        1.1791160616
 C         5.2446636444       -0.2529397771        1.8174562245
 O         3.3632615718        1.6037636121        4.1971694384
 O         3.6639813715        0.4447501457        0.1121636399
 C         3.0069594205        2.8756734945        0.8405370276
 C         5.0579910157        2.7391606156        2.2832830974
 H        -1.5625174821        5.3159157460        2.1459860020
 H        -1.2523655640        5.2640452419        0.3159255484
 H        -0.4107598390        4.2138504113        1.4138968547
 H         2.9517647852        7.2415671137       -1.0260772580
 H         2.5079883204        5.6495411592       -0.3327772377
 H        -0.6206599480        9.0663841682        1.6106034490
 H        -1.5455447217        7.7744476663        1.4771164159
 H        -1.3580736734        8.6915766953        0.0540081443
 H         2.6022459130        7.7001209859        1.1133901545
 H         1.8205308924        9.1472175648        0.5302851159
 H         1.5912794912        8.5245819140        2.2405381447
 H         2.0418951223        6.9684354249       -3.0946054785
 H         3.1249548747        5.6776716686       -2.7402169740
 H         1.5790555467        2.5478731304       -6.1831079493
 H         2.2742620007        2.9333625378       -4.6692330037
 H        -1.5386493755        5.7171390201       -5.3648460452
 H        -0.8463303508        6.8315811665       -4.0596271723
 H        -1.5466202736        5.2860041624       -3.6451216721
 H         1.0698935661        5.3859495320       -6.4738409980
 H         1.7016080486        6.6406212704       -5.3938009371
 H         2.2769508910        4.9555791688       -5.3399198028
 H         0.3534148985        0.5973346885       -5.3699508093
 H         0.7431065224        0.8497322361       -3.7020485816
 H         0.8161206480       -2.8100148278       -2.3847710129
 H         1.3490469038       -1.2236194484       -2.5394023432
 H         3.8792495463       -0.5337820300       -6.4429801697
 H         2.2780516428       -1.1646804612       -6.6688973103
 H         3.8910684291       -2.2088690739       -6.3938313277
 H         4.4051404072       -2.5818756763       -4.0203229732
 H         4.6503114483       -0.8732966723       -3.5913373813
 H         3.4662352728       -1.9804008308       -2.7608073043
 H        -0.8605460167       -0.6806080425       -3.7877034051
 H        -1.3929964668       -2.3215265747       -3.5887401986
 H        -6.0884711666       -0.9071855037       -0.8176643780
 H        -5.5205432448       -1.9975364521       -1.9563774490
 H        -3.7072557838        1.5969219035       -1.4698395336
 H        -2.3501556172        1.6860943471       -2.4458219709
 H        -2.1126258927        1.3749443720       -0.7640054188
 H        -4.6086364228       -0.0175809487       -3.1642958068
 H        -3.0602508613       -0.4957359546       -3.8982990721
 H        -4.1227459163       -1.6226762413       -3.2837215200
 H        -6.6382241609       -3.1089720386       -0.2031204283
 H        -5.4129588232       -2.5094081147        1.0742743275
 H        -3.6160940470       -6.6406760705        1.1560407120
 H        -3.3502594119       -7.8986983257       -0.0146431028
 H        -5.7999509147       -6.2232864038        0.9741297382
 H        -6.5262897117       -6.7775564336       -0.3594495229
 H        -6.8088635812       -5.0663478897        0.0167489952
 H        -6.3282798373       -4.1919876910       -2.2900030076
 H        -4.8758924784       -4.9725522124       -2.9194971013
 H        -6.2652971390       -5.8732429279       -2.5379389679
 H        -0.9400655941       -7.0338308187       -0.1880433281
 H        -1.5047999652       -5.4909278806        0.4122705398
 H         0.9937523941       -4.7855802718        4.6789936239
 H         0.7216372851       -3.1737626198        3.9151136994
 H         0.5954622291       -6.7671604069        4.7461783786
 H         1.6099249608       -7.5157216443        3.5319763598
 H        -0.1149107875       -8.1421077914        3.8976930103
 H         1.0723912753       -5.8989719702        0.6950225504
 H         2.3430795797       -6.3515399953        1.8592928020
 H         1.1505274120       -7.5517096430        1.0769541106
 H        -0.8451091469       -3.8111229527        5.9844790435
 H        -1.7973171235       -4.6843443494        4.5774450208
 H         0.3254038309        1.4197601017        4.8974799265
 H         1.6368946817        0.3041200195        4.6694056791
 H        -1.8221925774        0.8533260653        5.4745490624
 H        -2.9571452201       -0.3389916659        5.9327298167
 H        -2.8335581051        0.0367525801        4.2370543113
 H        -1.0432394698       -1.4982050233        7.1246365696
 H         0.5023547649       -2.0415447891        6.1473090337
 H         0.1822306246       -0.3216292207        6.6701026914
 H         1.2421091261        0.8030383469        1.9255600909
 H         0.6443315323        2.2758861643        2.7414000095
 H         5.0716127611       -0.4859624208        2.8737524917
 H         5.6224283316       -1.0574372311        1.2107457635
 H         6.1005496859        0.4501973748        1.9251305026
 H         3.2218016714        3.9066853071        0.9350036311
 H         1.8684136139        2.7839092415        0.9937284009
 H         3.2046385975        2.5520284671       -0.2058164286
 H         5.7319759830        2.9401233891        1.4164728405
 H         4.8829823860        3.7451396646        2.7567463276
 H         5.6778490427        2.2579666624        3.0442873729
 Na       -1.8096248922       -2.4048068321        1.4194032020
