155

 C        -0.9584446073        4.7796749629        1.5254228443
 C         0.2526243664        5.9291135574        1.5802477311
 C         0.1347816467        7.3021115258        0.7746163812
 C         0.3584465769        7.1051286499       -0.7097614255
 C         1.8002819120        6.7189745565       -1.1693295287
 C        -1.2665586319        7.9745163689        1.0358119207
 C         1.2065024949        8.1977372764        1.4164304862
 O         1.2799682497        5.5979887016        2.1136063290
 O        -0.4569549779        7.3547660693       -1.5579093078
 C         1.8327253596        6.6420321907       -2.7439791225
 C         1.0464585873        5.3352322299       -3.1984448058
 C         0.5356750259        5.0999671108       -4.6339162012
 C         0.4445530840        3.5712620274       -4.8880263592
 C         1.8169782979        2.8426681118       -4.6818180359
 O         0.8452969744        4.4515912954       -2.4027182145
 O        -0.5613045639        2.9926736212       -5.2171883322
 C        -0.8994543186        5.8356102275       -4.5206538733
 C         1.4359048755        5.7040460192       -5.7947524532
 C         1.5449344699        1.3866217017       -4.3121519414
 C         2.8688213449        0.5819853755       -4.0786347100
 C         2.7969302470       -0.9526122697       -4.5028294145
 C         1.4704442752       -1.7879119036       -4.0620795892
 C         0.7462140070       -1.5755622130       -2.7149043900
 C         2.8753574874       -0.8393543395       -6.0829446984
 C         3.9692684388       -1.6909171363       -3.8782648902
 O         3.8602845410        1.0332905086       -3.5393101910
 O         0.9547627679       -2.6792734883       -4.6510549705
 C        -0.6902792228       -0.9719412667       -3.0103609690
 C        -1.5873119343       -1.0973372902       -1.7905159410
 C        -2.9904300723       -0.1675589351       -1.6343756255
 C        -3.8909664695       -0.9067733440       -0.5485961108
 C        -5.1128896652       -1.7351338511       -1.1693736043
 O        -1.2872161401       -1.9530490183       -0.9708885616
 O        -3.8022024084       -0.8513405578        0.6428231018
 C        -2.5009281095        1.0885911586       -0.8781740622
 C        -3.6626125031        0.2156947555       -2.9458168471
 C        -5.4207188282       -3.0221369066       -0.3792124085
 C        -4.2715476886       -4.1894989429       -0.4190873665
 C        -4.3083661700       -5.3645773568       -1.5528838578
 C        -2.9566574297       -6.2287722367       -1.4164314740
 C        -2.5343230786       -6.9020766284       -0.1131068841
 C        -5.5580935037       -6.4361128328       -0.9122781233
 C        -4.6197036366       -4.9070626041       -2.9852055226
 O        -3.2588770421       -4.0958211885        0.2350878637
 O        -2.2295015268       -6.3582613565       -2.3405101818
 C        -0.9961448781       -6.7291259388        0.1993169075
 C        -0.6867766215       -7.0608578733        1.6719698876
 C         0.4812436033       -6.2444381241        2.3865432177
 C        -0.1586305715       -4.9311668550        2.7016120198
 C        -0.1269201656       -4.4069429522        4.0987799500
 O        -1.4137521412       -7.6915451036        2.4219890963
 O        -0.6032419788       -4.2290937591        1.8065396494
 C         0.9183931778       -7.1152496165        3.5368506127
 C         1.7839753754       -6.0790942427        1.4115087875
 C        -1.4925895963       -4.2095848266        4.7528257470
 C        -2.1775502419       -2.8495301175        4.5029427859
 C        -1.3859803257       -1.4035984744        4.9732861825
 C        -0.6126603880       -0.6850535389        3.9189406964
 C         0.5868689231        0.1708263939        4.3781913276
 C        -2.5118124976       -0.4681641809        5.5397270893
 C        -0.5126856771       -1.7747298406        6.1743426567
 O        -3.2146043774       -2.6862663431        3.8913571496
 O        -0.7910180127       -0.7588449192        2.7084199628
 C         1.0437297092        1.2401504138        3.4394857707
 C         2.6062233189        1.3360232907        3.2764646863
 C         3.2757779186        2.1444247648        2.1895946166
 C         3.9986009786        1.0557426742        1.3086950054
 C         5.4138714586        0.7185845540        1.8350367029
 O         3.2799639684        0.8514953800        4.1663572410
 O         3.4209795609        0.5945420793        0.3493064011
 C         2.1975548535        2.6682760177        1.2239541175
 C         4.1619364679        3.2192601962        2.7785113130
 H        -0.4911043143        3.8207412185        1.4214926642
 H        -1.6475454851        4.7767714880        2.2960543125
 H        -1.5339938787        4.9311270472        0.5982875363
 H         2.3271322930        7.6218387005       -0.8428119608
 H         2.1017891881        5.8752546961       -0.5677522120
 H        -1.6467389106        8.4499408334        0.0699132420
 H        -1.1789717670        8.6810982156        1.8546319262
 H        -2.0772933417        7.2881668549        1.3852112580
 H         2.1557842291        7.6438570509        1.4270696856
 H         1.2274444078        9.1909478457        0.8534967736
 H         0.9007714759        8.3935844662        2.4402762736
 H         1.3039737789        7.5042688751       -3.0750755981
 H         2.8980219209        6.7492697199       -3.1993156940
 H         2.2413722366        2.7017147917       -5.6814162600
 H         2.4451366340        3.4813206340       -4.0792116614
 H        -1.4429932542        5.9175040594       -5.4261315732
 H        -0.7051022917        6.8509825630       -4.1256604038
 H        -1.4746530566        5.3358280399       -3.8031360903
 H         0.8187300901        5.5517652309       -6.6897390923
 H         1.5767178033        6.7797085460       -5.5486941290
 H         2.3649486439        5.0770205544       -5.7207693673
 H         0.8596434811        0.9974311671       -5.1120270822
 H         1.0415790209        1.4404802484       -3.3816271712
 H         0.5334105465       -2.5789603385       -2.2935122520
 H         1.1938534524       -0.9426697560       -1.9511041398
 H         1.9018093379       -0.5968648279       -6.4582692116
 H         3.3915304058       -1.7166504588       -6.4687755045
 H         3.6322828568       -0.1110875620       -6.3517568076
 H         4.0470979769       -2.6953475447       -4.3498889005
 H         4.9641491933       -1.2547181884       -4.0332610810
 H         3.8883431804       -1.8199626859       -2.8334018554
 H        -0.6467393292        0.1130955695       -3.2854823208
 H        -1.0846525641       -1.3944478604       -3.9749272956
 H        -6.0616466225       -1.0730345338       -1.0836953681
 H        -4.8721181273       -1.9037333597       -2.1535291570
 H        -3.3049534178        1.8626552317       -0.7199237345
 H        -1.6404425872        1.6546510975       -1.2307673713
 H        -2.3495055989        0.8180528802        0.1077599634
 H        -4.5815821796        0.8178866931       -2.8044821098
 H        -3.0231621870        0.9637918954       -3.4470052629
 H        -3.8562331182       -0.6583810307       -3.5536423101
 H        -6.3786987423       -3.3886056244       -0.6401881916
 H        -5.5275145760       -2.6741360461        0.6427416582
 H        -3.1604401217       -6.5929132135        0.7803426863
 H        -2.7042129396       -7.9630154243       -0.2005115282
 H        -5.8333647532       -7.2857786760       -1.5010349008
 H        -6.3687769300       -5.8284593680       -0.5923051428
 H        -5.2606951133       -6.9925645617        0.0061488401
 H        -5.3837274384       -4.0995082344       -3.0942879442
 H        -3.7310446265       -4.3308149166       -3.3826881668
 H        -4.8200027324       -5.8213259226       -3.5488897979
 H        -0.2399427774       -7.2788485440       -0.4140855915
 H        -0.6590319306       -5.6957893624        0.0432970928
 H         0.6373892253       -4.9860936363        4.6061840552
 H         0.4419170311       -3.4436366134        3.9985190363
 H         0.1551789601       -6.9482058340        4.3453890112
 H         1.8540646927       -6.8469172982        3.8708420195
 H         0.9072610216       -8.1404704730        3.1863348963
 H         1.5474072760       -5.5891674694        0.5012931978
 H         2.7719066297       -5.6687567225        1.7721718264
 H         2.0957366575       -7.0788595613        1.1606484445
 H        -1.3557926743       -4.2794028876        5.8068629469
 H        -2.1824261452       -5.0241492890        4.5971043868
 H         0.4222924152        0.6886892648        5.3549364691
 H         1.2639752260       -0.6698336686        4.5317094621
 H        -2.1592846897        0.5847817564        5.5554219389
 H        -2.8900316405       -0.9357641477        6.4768902842
 H        -3.1998790780       -0.4197919981        4.7270943769
 H        -1.1149208370       -2.0567154325        6.9399472766
 H         0.1482543880       -2.6022407563        6.0062945908
 H         0.1888609287       -0.9497068228        6.4742086020
 H         0.7243848213        0.8977045456        2.5003196044
 H         0.6726716632        2.2353881906        3.6335293815
 H         5.4275721280        0.5780759540        2.9005164002
 H         6.0115819112       -0.1037810588        1.4435762575
 H         6.0021175191        1.5837499374        1.5138391123
 H         1.5962577231        3.3509810369        1.8682697826
 H         1.5072797492        1.8992085973        1.0974055239
 H         2.5374796455        3.0870501249        0.3108256234
 H         4.8197979815        3.6878184766        2.1221413464
 H         3.5649767431        4.0548966300        3.1242187370
 H         4.8894410160        2.8454145743        3.5713666309
 Na       -2.0665695560       -2.2277195737        1.4178111887
