155

 C        -1.2695160146        5.1977438992        1.2213766127
 C        -0.0456922582        6.0522637763        1.4049163746
 C        -0.1202196338        7.5601532734        0.8042353212
 C         0.2186577763        7.4310642990       -0.7354136226
 C         1.6809361453        7.2403948611       -1.2051928636
 C        -1.5691494297        8.2275366107        1.0978064582
 C         0.9901006167        8.4575878722        1.5141934342
 O         0.9130408572        5.6748896372        2.0593522135
 O        -0.7615571498        7.3632860585       -1.4545277501
 C         1.6199435382        6.7163357547       -2.6660776077
 C         0.9049866114        5.4382328349       -3.0575058742
 C         0.5777282175        5.2054901014       -4.6460644484
 C         0.6455326927        3.7230021497       -4.9136955685
 C         1.9065888346        2.9862663237       -4.6426572836
 O         0.6291551617        4.5973606505       -2.2552204657
 O        -0.3406459484        3.1070015460       -5.2704403582
 C        -0.9138876416        5.7729081355       -4.8415592454
 C         1.5933157489        6.1466895566       -5.5059103330
 C         1.6306448854        1.4906376540       -4.2536881135
 C         2.9212028349        0.5320541641       -4.0649630823
 C         2.8029565398       -0.9303829999       -4.4415678090
 C         1.4696340838       -1.6976527637       -3.8778659865
 C         0.8094242894       -1.3339395713       -2.5614099195
 C         3.0615904985       -1.1508351260       -6.0043184280
 C         3.9713980313       -1.6335209559       -3.7369271111
 O         3.8948332752        1.0467856780       -3.5101190300
 O         0.8728747404       -2.5315174434       -4.5640000472
 C        -0.7356473776       -1.1274863039       -2.9062643833
 C        -1.5151159761       -1.1965834130       -1.6081557006
 C        -2.7003781821       -0.2406590022       -1.2767793868
 C        -3.8442079370       -1.1255488359       -0.5127466677
 C        -4.6826538953       -2.0123677807       -1.5132397757
 O        -1.1142970617       -1.9594414148       -0.7261880930
 O        -3.9602320966       -1.0036124444        0.6398962419
 C        -2.1869734406        0.8449149839       -0.3096806006
 C        -3.3275621794        0.4397799151       -2.5248292517
 C        -5.1229165473       -3.1563380337       -0.6953842228
 C        -4.1289450705       -4.3242865211       -0.6750121409
 C        -4.1713043727       -5.4726181195       -1.7135735846
 C        -2.7215392730       -6.2248586675       -1.6566142364
 C        -2.4330945932       -7.1476139434       -0.3592333350
 C        -5.3211288194       -6.3059089216       -1.2790846818
 C        -4.3318253265       -4.9107557504       -3.1715364626
 O        -3.3390415199       -4.4059610675        0.2439830653
 O        -1.9821647059       -6.1691015882       -2.6184504248
 C        -0.9271187702       -6.7887319845        0.0558933877
 C        -0.5980779675       -7.0501904108        1.5110545070
 C         0.6684707973       -6.0532312591        2.2119345201
 C        -0.0425247388       -4.8620925869        2.6584148926
 C        -0.1031439147       -4.4512562592        4.1399876733
 O        -1.1911023609       -7.7854723927        2.2682817278
 O        -0.4359777247       -4.1369151795        1.7444456906
 C         1.2659457810       -7.0228235415        3.3616063363
 C         1.6759088842       -5.6466814645        1.1381850879
 C        -1.6187103273       -4.1766602270        4.6320185337
 C        -2.2063482158       -2.7325883843        4.4239543835
 C        -1.6508659713       -1.5999814475        5.2081206185
 C        -0.6235882519       -0.8110409394        4.0536289377
 C         0.4931266417        0.1135629864        4.4877718448
 C        -2.9423832174       -0.5673746186        5.4376037397
 C        -1.0321882200       -1.9161400019        6.5568627462
 O        -3.0468348070       -2.6804954972        3.5490883495
 O        -0.9213012969       -1.0170601728        2.8967505148
 C         0.8440879445        0.9485641988        3.3636434336
 C         2.4670309109        1.1443608298        3.3465478318
 C         3.0982118518        1.9826306528        2.1116139942
 C         4.0715865569        1.0061771421        1.4643506809
 C         5.6375181173        1.0503219440        1.6551721523
 O         3.1196063921        0.5122483586        4.1506090339
 O         3.6926830055        0.0891065411        0.8132878073
 C         2.1342039377        2.5604412627        1.0457241957
 C         3.8591159862        3.0413620739        2.8814891057
 H        -1.0218379285        4.2906281009        1.8096876765
 H        -2.1531122681        5.6192338642        1.5103446578
 H        -1.4529054214        4.7840215583        0.1418802611
 H         2.1252666891        8.2121996217       -1.1737415360
 H         2.1270988955        6.5850612306       -0.5045102901
 H        -1.4652725646        9.3084748460        1.4841655357
 H        -1.9717545695        7.8285343151        2.0297097705
 H        -2.2468735152        8.2974240786        0.2497636607
 H         2.0228071874        7.9869114717        1.4206353136
 H         1.0238821385        9.4537317817        1.1562634648
 H         0.7107276906        8.4680624765        2.5752859432
 H         1.1877158159        7.4840835369       -3.3333645610
 H         2.7437951353        6.7385424189       -3.0126535374
 H         2.4366349050        2.9091363442       -5.5660202203
 H         2.5351817093        3.4699183901       -3.9069238362
 H        -1.3657978375        5.5525494509       -5.7998277124
 H        -0.9616234088        6.9104480260       -4.7992466648
 H        -1.5097364309        5.2943677159       -4.0812254437
 H         1.7080419209        5.6511116227       -6.4920817937
 H         0.9873967317        7.0636671669       -5.5151654894
 H         2.5839457806        6.1867885130       -5.0088328664
 H         0.8413420431        1.0445678392       -4.9091690059
 H         1.2508643645        1.6203020428       -3.2541696814
 H         0.9707724369       -2.1185486704       -1.7955295777
 H         1.1161620892       -0.3468354530       -2.1537015441
 H         2.6225171651       -0.3246597200       -6.6436912262
 H         2.6497222392       -2.1679401388       -6.3094335725
 H         4.1281198285       -1.1944209940       -6.1481924461
 H         4.1305142478       -2.6930809025       -3.9885891134
 H         4.9807661834       -1.1832068315       -3.8549634487
 H         3.8759384794       -1.4426958766       -2.7068452445
 H        -0.8216604404       -0.1424672403       -3.4014720022
 H        -1.0730480976       -1.8121160500       -3.7201753834
 H        -5.5811015681       -1.4067691106       -1.9388024782
 H        -4.0660722664       -2.2750335729       -2.2844133406
 H        -3.0123525555        1.4178938882        0.1950961598
 H        -1.4949726491        1.4954746506       -0.6830143276
 H        -1.6862189950        0.3680403199        0.5320008443
 H        -4.4174393720        0.6993662674       -2.3333181894
 H        -2.7516414398        1.3913283196       -2.6230124797
 H        -3.2029776699       -0.1157115674       -3.4381398719
 H        -6.0586152912       -3.5146585766       -1.0524106979
 H        -5.2593705510       -2.9413682953        0.3805381018
 H        -3.2096939534       -6.8284325629        0.4423662203
 H        -2.6248803148       -8.2087937784       -0.5932383870
 H        -5.3767405496       -7.3477593608       -1.4604351613
 H        -6.2471491220       -5.8675904224       -1.5824638737
 H        -5.2909001438       -6.2249411920       -0.1742612340
 H        -5.3263356121       -4.4827505854       -3.2183831603
 H        -3.5766334308       -4.2716606707       -3.7042526390
 H        -4.5068739776       -5.7654929097       -3.8169243018
 H        -0.2051751310       -7.3486588914       -0.5336809497
 H        -0.8133034568       -5.7296643403       -0.1795364076
 H         0.3482253869       -5.2571120541        4.7613742157
 H         0.5578793792       -3.5253085688        4.1776081260
 H         0.5411056466       -7.7151761791        3.8338482593
 H         1.6617724669       -6.3883116321        4.0663235421
 H         2.1057395133       -7.5475565788        2.8963670885
 H         1.3221503421       -4.8029128941        0.5704356771
 H         2.6766619015       -5.3711836393        1.5032045856
 H         1.7887084485       -6.3609783002        0.3216214032
 H        -1.6645254266       -4.4875898972        5.6460649580
 H        -2.3243403669       -4.8213057626        4.1187809246
 H         0.0974605720        0.8204122991        5.2862335256
 H         1.4420495995       -0.3335432754        4.8607422388
 H        -2.6824845151        0.2686209124        6.1995372266
 H        -3.7767329748       -1.1564325563        5.9020022048
 H        -3.2881082799       -0.1246472725        4.4369896495
 H        -1.4474454819       -2.7745116558        7.0038537666
 H         0.0410971280       -1.9827045983        6.6727664310
 H        -1.3291091519       -1.1083382771        7.2286426426
 H         0.8057621180        0.3940710338        2.4609003535
 H         0.3612576804        1.9106580767        3.2186209428
 H         5.9332463928        0.3646004098        2.3951731827
 H         6.1683629204        0.6754079318        0.7786787541
 H         6.0192185473        2.0210241811        1.8742382687
 H         1.3468412893        3.2730329848        1.4928431698
 H         1.7177076701        1.7270692370        0.5591956719
 H         2.7288117744        3.0143828856        0.2504567515
 H         4.4292442949        3.5676965412        2.1572108809
 H         3.3192611926        3.7616763553        3.4999215002
 H         4.5915172170        2.6950414925        3.6830662406
 Na       -2.2937027442       -2.6180275773        1.5450654192
