155

 C        -2.1462563189        5.6886787848        0.1754882993
 C        -1.0636961974        6.3169353103        1.1513634102
 C        -0.7135438068        7.9402811521        0.7916125263
 C        -0.3892376264        8.1094003848       -0.6892652686
 C         1.1235166731        7.7480535897       -1.2215460941
 C        -2.0122337038        8.5290974301        1.1887983254
 C         0.4254912999        8.3667836095        1.6327836757
 O        -0.5628324224        5.8702708866        2.1452990737
 O        -1.2563779093        8.3858710690       -1.5250311519
 C         1.0648042502        7.2518225191       -2.7221587838
 C         0.9372816747        5.7200986667       -3.0376655787
 C         0.8340738793        5.3637750178       -4.5991066901
 C         0.6561231021        3.7948444200       -4.6144674626
 C         1.7190740641        2.9024059953       -3.9037051981
 O         0.7184975435        4.8632277474       -2.2117578922
 O        -0.3436616284        3.2273375019       -5.0207159081
 C        -0.4565271852        6.0306008154       -5.1051275532
 C         1.9241879837        5.8425786069       -5.4412358770
 C         2.2314258812        1.6513913551       -4.7158812010
 C         3.1627586239        0.7711726879       -3.8694974057
 C         3.0069290925       -0.8159204030       -3.9883580211
 C         1.4860536318       -1.1173167554       -3.7897717130
 C         0.9361582901       -1.2946668627       -2.3686329624
 C         3.4781184149       -1.1127657841       -5.4981896402
 C         3.8291898845       -1.4247426380       -2.8963116637
 O         3.9776664598        1.2117296739       -3.0961946325
 O         0.6798954743       -1.1642260825       -4.6835664652
 C        -0.3026988791       -0.3355948033       -2.2723982249
 C        -1.2822452418       -0.8189649415       -1.1776189799
 C        -2.6481751652        0.0356119722       -0.9491901486
 C        -3.8007135745       -1.0648364911       -0.8387634926
 C        -4.3864267121       -1.7919458443       -2.0756418217
 O        -1.0646967280       -1.7840873581       -0.5442708816
 O        -4.0968841945       -1.5128607266        0.2775182814
 C        -2.4342882130        0.6614714348        0.4429095943
 C        -2.9132451853        1.0101568556       -2.0572451132
 C        -4.8071360129       -3.2423151457       -1.8087696137
 C        -3.6354222666       -4.2228362054       -1.4826632540
 C        -3.6561811343       -5.6199806786       -2.1942483955
 C        -2.2537242646       -6.5332596886       -1.9378777011
 C        -1.8021571567       -6.8505497054       -0.5084035900
 C        -4.7202895672       -6.5990855362       -1.3870364340
 C        -4.0872319534       -5.6570562618       -3.7036227931
 O        -2.9737693280       -4.0559623629       -0.4916364094
 O        -1.6369012897       -6.8243171479       -2.9101642115
 C        -0.5197350262       -6.2302295791       -0.1065689144
 C         0.0819314639       -6.8658941061        1.2828450007
 C         1.0017203994       -6.0153884958        2.1421419510
 C         0.1254724018       -4.9727895569        2.8515914764
 C         0.0165498708       -4.8664119289        4.3920944310
 O        -0.1793749519       -8.0247348777        1.4508561432
 O        -0.6422963556       -4.4053041764        2.1269738809
 C         1.9178456618       -7.0368626236        2.9632961997
 C         1.9056634563       -5.0489884122        1.2489568816
 C        -1.4814357646       -4.7142636111        4.8452490658
 C        -2.1833939681       -3.4690027708        4.3693896962
 C        -2.0986483102       -2.0490828766        5.0225554145
 C        -1.0424958054       -1.3791025690        3.9955899573
 C        -0.0232171798       -0.3717922790        4.5198455586
 C        -3.4090721724       -1.1822207152        4.8856068039
 C        -1.5295081238       -2.0845159779        6.4507726265
 O        -2.9125146344       -3.5557367378        3.3831262035
 O        -1.1549729552       -1.3711657877        2.8101369390
 C         0.7104077859        0.3992589827        3.3486097898
 C         2.1339490616        0.6409398411        3.5692945169
 C         3.0016725829        1.6307363767        2.6246226794
 C         4.0675705509        0.6267138865        1.8506306577
 C         5.4519325186        1.0210349074        1.5276235378
 O         2.7280203114        0.0547306537        4.4360126873
 O         3.6355007074       -0.4467642631        1.5940068988
 C         2.0035979426        2.2759286772        1.4972481939
 C         3.7497648056        2.7015750807        3.3320809234
 H        -2.6662135615        4.9349360338        0.7142282328
 H        -2.8965565780        6.2146880440       -0.3354453107
 H        -1.5053432217        5.0403220221       -0.5284201375
 H         1.7023547916        8.6377478990       -1.1703027204
 H         1.5634811577        7.0485012284       -0.5286980846
 H        -1.8262033282        9.6185710471        1.3418786881
 H        -2.3861828959        7.9437500415        2.0132002709
 H        -2.8402671447        8.4043079522        0.4643561462
 H         1.3517096659        7.7551100285        1.5892364858
 H         0.7369667672        9.3765662161        1.3903600138
 H         0.1251341362        8.4243588159        2.6691807992
 H         0.1174049939        7.7598606902       -3.0749446455
 H         1.9076474727        7.7432875066       -3.2817618071
 H         2.4669993742        3.5245079850       -3.3749448198
 H         1.2222619260        2.4675660228       -3.0828469092
 H        -0.6885761883        5.7715484308       -6.1577661641
 H        -0.3746605145        7.1443081942       -5.0180412972
 H        -1.3790426594        5.8272976565       -4.5608861202
 H         1.5674580393        5.7619084507       -6.4802047755
 H         2.2243898979        6.9071060924       -5.2313589409
 H         2.8811488751        5.3032932226       -5.2647057386
 H         2.7619945528        2.0104932090       -5.6022191463
 H         1.4127409133        1.1779411862       -5.1698816791
 H         0.5503745002       -2.3332810127       -2.3898743640
 H         1.6712787548       -1.2123103722       -1.5897975153
 H         3.6837887869       -0.1627814459       -5.9802437276
 H         2.7536374385       -1.6608765135       -6.1588873817
 H         4.4834823339       -1.5885293604       -5.4374301552
 H         3.3240542213       -2.2832066643       -2.3502359654
 H         4.8327260220       -1.7973944915       -3.2093345847
 H         4.0544692780       -0.7372715102       -2.0734692503
 H         0.1498318330        0.5597282441       -1.8359132503
 H        -0.7103588828       -0.1101129799       -3.2874859330
 H        -5.1041262665       -1.1768939901       -2.6054354732
 H        -3.5362177241       -1.8649558326       -2.8374212116
 H        -3.3954129534        0.9945467467        0.9232792745
 H        -1.7667571872        1.4544400049        0.4576782724
 H        -2.1389857595       -0.1468091781        1.0822095905
 H        -3.7535343956        1.6190132768       -1.7665163470
 H        -2.0470918773        1.6479191392       -2.2529606185
 H        -3.1881458902        0.3347774553       -2.8519978260
 H        -5.3611218686       -3.6048636998       -2.6686917472
 H        -5.4252268715       -3.4055417950       -0.9533332271
 H        -2.5063780618       -6.5623809677        0.2582222414
 H        -1.6570868812       -7.9449745843       -0.4674811883
 H        -4.8211402402       -7.5100408118       -1.9428102686
 H        -5.6222306421       -6.1497533118       -1.1830558858
 H        -4.3680403692       -6.8515704105       -0.3594474533
 H        -4.9015747050       -6.3216978330       -3.9390461142
 H        -4.4280772176       -4.6631884550       -3.9928446673
 H        -3.2436954237       -5.9887684556       -4.2671979630
 H         0.2120951352       -6.5032367251       -0.8885684495
 H        -0.7083614600       -5.1587030105       -0.0852330748
 H         0.3122001007       -5.7917849680        4.9399699098
 H         0.5668977834       -4.0901463928        4.9744847295
 H         1.1846008299       -7.7666572607        3.4665733544
 H         2.4382013242       -6.5057033075        3.7027478370
 H         2.5495892202       -7.5649367631        2.2726616289
 H         1.3151878180       -4.3450633827        0.7285037985
 H         2.7346524190       -4.4091537458        1.7169624984
 H         2.4291680148       -5.6155161846        0.5129756931
 H        -1.5671930390       -4.8602209841        5.9119072684
 H        -1.9395225806       -5.5482719343        4.4021744193
 H        -0.5205381680        0.2878596229        5.1961020570
 H         0.8142440565       -0.8192239302        5.1575343506
 H        -3.2227591264       -0.1097969536        5.2679019771
 H        -4.2927805622       -1.5729283736        5.4513992877
 H        -3.7672872562       -0.9930799100        3.8152340245
 H        -2.3111227122       -2.1010652747        7.0876816957
 H        -0.9478873686       -2.9227021653        6.7548065628
 H        -0.8662880665       -1.2204636312        6.6427248048
 H         0.5299475934       -0.0583564106        2.3893444968
 H         0.1358549730        1.2928078751        3.3123618851
 H         5.3249986006        1.5719079950        0.6184919177
 H         6.0721359468        1.4719665589        2.2568574529
 H         5.9263494720        0.0883049980        1.2622511813
 H         1.1619699273        2.7573186122        2.0988678362
 H         1.5114307553        1.4889360018        0.9368577803
 H         2.5673390794        3.0135112001        0.9181430956
 H         4.4169364610        3.1925513906        2.6609161765
 H         3.1523221205        3.4889169488        3.7702530960
 H         4.6098448555        2.2676556213        3.9400192873
 Na       -2.1255972724       -2.7347110400        1.2985407973
