155

 C        -3.3636890181        6.2483479998       -0.7044842484
 C        -2.4492412754        6.5764591299        0.4248850340
 C        -1.7883545966        8.0556805637        0.4758614759
 C        -1.0061391104        8.2643007089       -0.9173401238
 C         0.4957715462        8.2852984117       -0.9911567585
 C        -2.8392088589        9.1604014836        0.5280340643
 C        -0.8791475327        8.1578607976        1.7911881324
 O        -2.0920333315        5.6329403714        1.1539566838
 O        -1.6394201080        8.5647576681       -1.9109645300
 C         1.0197680605        7.8851635493       -2.3764804597
 C         0.6392606857        6.3780683803       -2.6309893721
 C         0.9507431058        5.7787101266       -4.1068411778
 C         1.3033313264        4.1980175937       -4.0001693398
 C         2.6028389135        3.6784518628       -3.4248694894
 O         0.0887562265        5.6028115848       -1.8733999564
 O         0.3865781405        3.3944003929       -4.0935635788
 C        -0.3660931607        6.0092393222       -4.9405948581
 C         2.1790842625        6.5031676296       -4.9188553334
 C         3.0226594744        2.3709475572       -4.0679416057
 C         3.2596058544        1.3480693867       -2.9248656886
 C         3.0757781814       -0.1245006012       -3.1591779634
 C         1.5463234739       -0.3495445880       -3.3166984224
 C         0.7617192072        0.3230633779       -2.1854856531
 C         3.8349081111       -0.6788193276       -4.3459657055
 C         3.5733693170       -1.0174816018       -1.8859869775
 O         3.6566130304        1.7457657735       -1.8397965267
 O         1.0111608214       -0.8147461570       -4.2339595031
 C        -0.6586278777        0.2752944527       -2.5480038821
 C        -1.5671621191       -0.4439108143       -1.5456088298
 C        -3.1125253887       -0.2150267010       -1.5528249353
 C        -3.8796946443       -1.5090712845       -0.9115785036
 C        -4.3354500841       -2.5132518905       -2.0115346349
 O        -1.0025029604       -1.1076359601       -0.6789426128
 O        -3.9996257082       -1.6908626265        0.2604662718
 C        -3.2163227852        0.9042179722       -0.3090098127
 C        -3.7033313959        0.3050574584       -2.8798963558
 C        -4.3702490003       -4.0202669645       -1.5635053779
 C        -2.8530312020       -4.7767945587       -1.5901557374
 C        -2.7371091640       -6.0259497528       -2.5055498931
 C        -1.3016028812       -6.5963341561       -2.3857945740
 C        -1.0201252148       -7.1783781652       -0.9297936529
 C        -3.8692625599       -7.2024134409       -2.1547313763
 C        -3.0339041577       -5.5959030492       -3.9465660453
 O        -1.8860525600       -4.3727478026       -0.9423898141
 O        -0.4821436705       -6.5871967066       -3.3161098968
 C         0.5061040007       -6.7281397432       -0.5469701804
 C         0.6551535374       -6.8125691338        0.9021524786
 C         1.5621443844       -5.6480826731        1.7070215645
 C         0.5019071817       -4.7411532608        2.5501391810
 C        -0.1611021393       -5.4988034160        3.7024965208
 O         0.1401147200       -7.6845585801        1.5573296857
 O         0.1772011296       -3.6087342196        2.2605621031
 C         2.5030601823       -6.4766887993        2.6062683509
 C         2.3787557994       -4.6244261045        0.8990075390
 C        -1.6868241409       -5.5877087337        3.5666784127
 C        -2.4082889211       -4.1279899144        3.4130122030
 C        -2.2910293148       -3.0358302619        4.4797462141
 C        -1.4307587420       -1.7737437801        3.8045268763
 C        -0.2878297702       -1.0816660619        4.5707277035
 C        -3.6246386142       -2.2730892659        4.6591129563
 C        -1.6462240047       -3.4470074486        5.8296359407
 O        -3.0218743310       -3.9674027763        2.3749699361
 O        -1.7626246318       -1.2665823330        2.7644398985
 C         0.6249513569       -0.2452948376        3.5040722166
 C         1.9056545794        0.1472156536        4.2852183931
 C         2.9595006715        0.9891090759        3.5978506403
 C         3.4662755389        0.0786594208        2.2913072542
 C         5.0582822573        0.0822610328        2.0869387773
 O         2.0185363530       -0.1612731776        5.4432769467
 O         2.7372828997       -0.4591106079        1.4631445709
 C         2.4376761658        2.1893301842        2.9460234378
 C         4.2060727696        1.2653602519        4.5884063146
 H        -3.8950940854        5.3313093448       -0.5731917556
 H        -3.9992471726        7.0724708266       -0.9527402357
 H        -2.6145688965        6.0392569145       -1.5747086103
 H         0.8555698508        9.2892599199       -0.5860714613
 H         1.0141656049        7.5625599720       -0.3511473830
 H        -2.2671865656       10.0197015494        0.9287659457
 H        -3.7659921595        8.8251647424        1.0791483091
 H        -3.1793862448        9.4183303144       -0.5117277889
 H        -0.3529863292        7.3072481423        2.1207174869
 H        -0.1059703311        8.9948380731        1.6767243159
 H        -1.5419384066        8.5317988802        2.5932485782
 H         0.5777529636        8.4715569725       -3.1142167355
 H         2.0882706580        7.9708330339       -2.4492868370
 H         3.3880543506        4.4148655517       -3.3026170657
 H         2.3419538822        3.4451028258       -2.4052827488
 H        -0.2483872536        5.5611669576       -5.9328602632
 H        -0.5350014738        7.0929919988       -5.0020454967
 H        -1.2764795367        5.5907352018       -4.4659453884
 H         2.2449421726        6.0740360855       -5.9381837926
 H         2.3115637710        7.5585750830       -4.9991958155
 H         3.1436721204        6.3040320028       -4.4435206922
 H         4.0119597677        2.5663675607       -4.5418843344
 H         2.2987766790        2.0901884887       -4.7940022272
 H         1.0062641912       -0.1870201430       -1.2294975803
 H         1.1073323303        1.3313357250       -1.9414909735
 H         4.9277143825       -0.5051703148       -4.3154248047
 H         3.5749364976       -0.1758593673       -5.2525105319
 H         3.7640058463       -1.7688111492       -4.3181466238
 H         3.1582075925       -2.0043355844       -1.9798772987
 H         4.6863642112       -0.9238956698       -1.9308139076
 H         3.1756588279       -0.5773883439       -0.9208092781
 H        -1.0338486355        1.2449770997       -2.8785058650
 H        -0.7483707504       -0.3463696235       -3.4877717527
 H        -5.4243278550       -2.3379341087       -2.4564981211
 H        -3.7033093377       -2.4453931722       -2.8571904403
 H        -4.0096420295        1.5574993996       -0.5922902868
 H        -2.3196596016        1.6088066836       -0.2837512173
 H        -3.3866222071        0.4067938734        0.6622551926
 H        -4.8154581799        0.3710558559       -2.8014447128
 H        -3.3720895787        1.3145303963       -3.0985589122
 H        -3.5601640152       -0.2612483035       -3.7924031287
 H        -5.0824973312       -4.6825677853       -1.9571655527
 H        -4.6588981822       -3.9777600165       -0.5169112473
 H        -1.6983981161       -6.6529550975       -0.2293191197
 H        -1.1376350094       -8.2008588203       -0.7791972438
 H        -4.0573826310       -7.7111143040       -3.0741333244
 H        -4.8025889623       -6.7857495089       -1.6961528633
 H        -3.5450229905       -7.8957210891       -1.4844736322
 H        -3.2977354893       -6.4406871759       -4.5517158497
 H        -3.7947107198       -4.8542958359       -3.9720705474
 H        -2.1581888148       -5.2288946641       -4.4392613394
 H         1.3336485158       -7.2123750941       -1.1400071455
 H         0.5984545228       -5.6909909095       -0.8965817947
 H         0.1648477978       -6.5045240187        3.6335331543
 H         0.2255605769       -5.0639345222        4.6069574447
 H         2.2113070225       -7.4732217037        2.6830206772
 H         2.6307732107       -6.1594134659        3.6749877723
 H         3.5161524496       -6.5191901411        2.1837469138
 H         1.6162906111       -4.0238127443        0.3500853497
 H         2.7694421453       -4.0063283806        1.6375294190
 H         3.2337844401       -5.0035264343        0.2971765609
 H        -2.2449001645       -6.1630183580        4.3729572626
 H        -2.0478020969       -6.0515540235        2.6005164770
 H        -0.7609613874       -0.5045642210        5.3400569944
 H         0.4046150785       -1.7679632347        5.1427810044
 H        -3.5403615715       -1.2536768496        5.0923530027
 H        -4.3032998575       -2.9054202668        5.3508437257
 H        -4.1869366818       -2.3345659328        3.7088436129
 H        -2.4105817099       -4.1312299681        6.2559876920
 H        -0.7393470887       -3.8979038779        5.5599910609
 H        -1.4178868873       -2.5993082016        6.4381094188
 H         0.8896156108       -0.8071576413        2.6137257482
 H        -0.0122509387        0.6042258888        3.1434164967
 H         5.4548136810        1.0822536713        2.1297666912
 H         5.6577671025       -0.4601440500        2.8291156153
 H         5.1845060689       -0.2515164295        1.0824144831
 H         2.3586310643        2.9522319836        3.6580920779
 H         1.4327272196        2.1016816473        2.4494243922
 H         3.2339447454        2.3419134984        2.1641209445
 H         5.2190436622        1.3358651744        4.0987764832
 H         3.8814052678        2.2198802330        5.0610425647
 H         4.3394591894        0.4722586362        5.2984232700
 Na       -1.7472592099       -2.6376460748        1.0067148052
