155

 C        -3.5579223496        6.2072902041       -0.9473766215
 C        -2.6505378332        6.5821819252        0.2495870866
 C        -2.1217024720        8.0734686730        0.3653888856
 C        -1.2102316845        8.2381065047       -0.9449781065
 C         0.3400929903        8.2339162976       -0.8217089879
 C        -3.1977132097        9.3481447391        0.3329267371
 C        -1.3250469820        8.2119362554        1.6127240120
 O        -2.2813907848        5.8035111956        1.0713596987
 O        -1.6594371859        8.3978801894       -2.0632263531
 C         1.1254875744        7.8800098607       -2.1385910397
 C         0.7898884101        6.3805902809       -2.5006607169
 C         0.9447325694        5.9532276336       -3.9770806898
 C         1.3149143636        4.4072005800       -3.9011698018
 C         2.8163274981        3.9782482226       -3.6251149134
 O         0.5071108492        5.5160111429       -1.7087266817
 O         0.4816948148        3.5860283371       -4.1575382106
 C        -0.4137526616        6.0063227414       -4.6564992867
 C         2.0578114983        6.8263096726       -4.6651479895
 C         2.9431225420        2.4506451975       -3.8925365808
 C         3.3945743468        1.6366063815       -2.6845641704
 C         3.2250441731        0.0122061738       -2.7389639463
 C         1.7271073383       -0.2423263331       -3.1499636448
 C         0.5026246270        0.5645712985       -2.2522927503
 C         4.1363037645       -0.4266752683       -3.9065157689
 C         3.4200251161       -0.7365013647       -1.3927105704
 O         3.8020155674        2.1689495568       -1.6692219390
 O         1.4293114484       -0.6412131165       -4.2126742080
 C        -0.8914517304        0.3702629654       -2.7869574563
 C        -1.6615520717       -0.4465685598       -1.7506527292
 C        -3.1642890735       -0.1589704601       -1.4940858843
 C        -3.7479588938       -1.6231262326       -1.0356920553
 C        -4.1246419159       -2.7568506252       -2.1984921565
 O        -1.1409538800       -1.4761807772       -1.2878106462
 O        -4.1074098727       -1.7571385426        0.0938273619
 C        -3.5982231704        0.8335204032       -0.4234156661
 C        -3.7820585733        0.2897629353       -2.8869011539
 C        -4.1063503990       -4.1335051925       -1.6023610071
 C        -2.7064329908       -4.8288159312       -1.6137736084
 C        -2.5963894463       -6.0399060578       -2.5604981352
 C        -1.0450729849       -6.4913826879       -2.5397303886
 C        -0.5946769805       -7.2045867307       -1.1753899097
 C        -3.5240877510       -7.1532694729       -2.1061539842
 C        -2.9317630697       -5.5360391732       -4.0347692672
 O        -1.7700231609       -4.4928809168       -0.8808176914
 O        -0.3507238890       -6.3939487923       -3.5080048630
 C         0.6378034909       -6.3687321051       -0.6170682119
 C         0.8493979771       -6.6950187817        0.8236445706
 C         1.5971660691       -5.5085417686        1.6073950174
 C         0.3901294558       -4.8921410239        2.3745276977
 C        -0.0613819783       -5.5122269565        3.6442914472
 O         0.4635159778       -7.6642237002        1.4025192578
 O        -0.1367820033       -3.9249255696        1.8807853394
 C         2.7269942074       -6.0149596019        2.5145981125
 C         2.2842470992       -4.4431913136        0.7095897924
 C        -1.5381958868       -5.5628769371        3.8920062784
 C        -2.3157746040       -4.2658909630        3.5150340772
 C        -2.4374367225       -2.9538483002        4.3864159453
 C        -1.4536001691       -1.8586776289        3.8244716066
 C        -0.3120615170       -1.2951300396        4.7319854708
 C        -3.9041762562       -2.4161304208        4.3261801358
 C        -2.1804421647       -3.3973589002        5.9324526455
 O        -2.8619605353       -4.2363243801        2.4342136923
 O        -1.5502285365       -1.5324322059        2.6161486247
 C         0.5444893689       -0.2063356906        3.9199456999
 C         1.9671427061       -0.1227602575        4.5514525967
 C         2.9381005226        0.8059057254        3.7864232580
 C         3.4072579671       -0.0239098066        2.4944205519
 C         4.9641265442       -0.3180303443        2.1704752884
 O         2.3413142774       -0.8672722599        5.4149342232
 O         2.5575885069       -0.5725438088        1.8622938040
 C         2.2543209718        2.1846071339        3.1565203560
 C         4.1126868747        1.3127505637        4.7084258169
 H        -3.9523483284        5.2853020798       -0.9650896522
 H        -4.3495072317        6.9914929870       -0.9252704867
 H        -2.9412414665        6.3261370858       -1.8504904495
 H         0.6597715378        9.2844183979       -0.5648813624
 H         0.7829395139        7.6419333058       -0.0458433697
 H        -2.5956715110       10.1540197730        0.6174111420
 H        -4.1064937485        9.1617554529        0.8916156295
 H        -3.6249887353        9.4996454560       -0.6979005229
 H        -0.5241679105        7.5681968347        1.4891847701
 H        -0.9997276752        9.2937926660        1.8353317891
 H        -1.8566206031        7.8137187708        2.4744760482
 H         0.8467699442        8.5606308059       -2.9024085554
 H         2.2198900010        8.0880127276       -2.0264377568
 H         3.4684489968        4.6315500344       -4.1706757529
 H         3.0501771035        4.1827023791       -2.6043917890
 H        -0.3691162074        5.4833391438       -5.6143582785
 H        -0.4762912910        7.0331412882       -4.9042169371
 H        -1.2769972532        5.6083182182       -4.0864945783
 H         2.6586450949        6.3560236331       -5.4207763405
 H         1.6900978730        7.7390385283       -5.0698837855
 H         2.8262152171        7.0486209473       -3.9314988448
 H         3.7096228875        2.3297415110       -4.6810406416
 H         2.0219779813        2.1072042896       -4.3018129198
 H         0.5385740075        0.3499174119       -1.1794485087
 H         0.7199596772        1.6480025442       -2.3123176873
 H         5.1858229236       -0.4892124430       -3.6408038138
 H         4.0147015949        0.0676770324       -4.8214241092
 H         3.7727854429       -1.4591399702       -4.1912246319
 H         2.6694593677       -1.4836819626       -1.3461153365
 H         4.4074785938       -1.1512028425       -1.2620211067
 H         3.2950184983        0.0183789280       -0.5908500489
 H        -1.4241339569        1.3040880566       -2.9093875698
 H        -0.9085962366       -0.0951418278       -3.7583523679
 H        -5.2594744089       -2.6249603749       -2.4340074988
 H        -3.7262837860       -2.8288056536       -3.1791378269
 H        -4.6317809976        0.5915680788       -0.0265612663
 H        -3.6639161995        1.7571245488       -0.8820020195
 H        -2.9363004436        0.8059415829        0.4474322890
 H        -4.8684763039        0.2878433020       -2.8446419622
 H        -3.4339214451        1.1968194885       -3.3277595899
 H        -3.5753628048       -0.4043552814       -3.6993714429
 H        -4.7719932873       -4.8385907865       -2.0406435681
 H        -4.4058260453       -4.1345156482       -0.5478209441
 H        -1.3469792431       -7.3587472603       -0.4248954383
 H        -0.2672698130       -8.1606920833       -1.4363314050
 H        -2.9674291845       -8.1318984254       -2.1156606502
 H        -4.4376041584       -7.2805878324       -2.7719789820
 H        -3.8498637900       -7.0477830338       -1.0767808992
 H        -2.7680714360       -6.2399612325       -4.8565967878
 H        -3.9704221527       -5.3522657086       -4.0439715821
 H        -2.2988189998       -4.6911033986       -4.3431599175
 H         1.5923885620       -6.6983117464       -1.1620949540
 H         0.4874582325       -5.3298103459       -0.9224801032
 H         0.3174617821       -6.5362583249        3.6368120226
 H         0.3863823808       -5.0145292977        4.5114078816
 H         2.3973892788       -6.4503663159        3.4333939194
 H         3.5072741600       -5.2809858804        2.8752972576
 H         3.2528756288       -6.7608159344        1.9561801850
 H         1.5413995046       -3.6576668477        0.4912137446
 H         3.1245495822       -4.0774828287        1.2951572623
 H         2.7354033016       -4.9890002291       -0.1308021352
 H        -1.8002086154       -5.9365917841        4.8957271895
 H        -2.1549897054       -6.3257771387        3.3616581962
 H        -0.6631463510       -0.9084720517        5.6898061721
 H         0.3966615152       -2.1627776346        4.9649188812
 H        -4.0366095978       -1.7339596255        5.1208910022
 H        -4.5647146628       -3.2807706703        4.4121771480
 H        -4.1540041160       -1.8246928905        3.4813367648
 H        -3.0625280040       -3.8252615417        6.3249725189
 H        -1.3711750451       -4.0537650521        5.9985569125
 H        -2.0543217980       -2.4563443277        6.4881645043
 H         0.6441550890       -0.3658505037        2.8819324745
 H        -0.0753323335        0.7061273293        4.0810848449
 H         5.4585831190        0.5183908701        1.6085414833
 H         5.4986122129       -0.3468276744        3.1628378733
 H         5.0921219414       -1.2858072095        1.6232708929
 H         1.5946905199        2.6786547820        3.8307512618
 H         1.6563711743        2.0362383460        2.1802134916
 H         3.1414650752        2.8566709222        2.9513076246
 H         4.5147830294        2.2867047650        4.3249993399
 H         3.8637894366        1.4170814775        5.7737595141
 H         4.8618079657        0.5021009390        4.5649116743
 Na       -1.9958996354       -2.9899885101        0.7683238679
