155

 C        -3.7901541029        6.2267754203       -1.1330197962
 C        -2.8861317961        6.6394901315        0.1303321220
 C        -2.3868004414        8.1382729935        0.1822166721
 C        -1.2883759320        8.1895254021       -1.0250888398
 C         0.1605032944        8.0899907644       -0.6394074183
 C        -3.5959643395        9.0988044674        0.0222058493
 C        -1.6411253017        8.4767884598        1.6238236517
 O        -2.7616983198        5.8983914653        1.0521745127
 O        -1.6627876119        8.3250926827       -2.1826224818
 C         1.0581832971        7.9078384478       -1.8422318360
 C         1.1320276027        6.3983991261       -2.3530752771
 C         1.0037965289        5.9805272852       -3.7968748953
 C         1.4588625231        4.4749833518       -3.9669067725
 C         2.9817080309        4.1838331101       -3.7640614633
 O         1.0443406714        5.5941225229       -1.4491480160
 O         0.6803299808        3.5988751942       -4.2492883069
 C        -0.4686468312        6.1586561092       -4.2396785261
 C         2.0468644798        6.8509596852       -4.6096183606
 C         3.4306772448        2.6703996389       -3.9360713460
 C         3.3926476435        1.9631797911       -2.5276253980
 C         2.9833003920        0.4283466035       -2.4340807173
 C         1.6012005311        0.2174289093       -2.9778501913
 C         0.4788216838        0.5883915966       -2.1357170840
 C         3.9982895551       -0.2540916018       -3.4474837867
 C         3.3037281313       -0.1523847219       -0.9717739382
 O         3.7867926099        2.6159746797       -1.5838503258
 O         1.4365032392       -0.4373859489       -4.0031889922
 C        -0.8065524952        0.2533201789       -2.8014778108
 C        -1.6513690774       -0.5176030844       -1.8273753480
 C        -3.2165902578       -0.4291090805       -1.6812959235
 C        -3.9235753346       -1.8016579403       -1.2022159920
 C        -4.0785536897       -2.8806877409       -2.3902339158
 O        -1.0621205318       -1.2876216277       -1.0489530485
 O        -4.3870885475       -1.9589910446       -0.1215167480
 C        -3.4048259149        0.6915237566       -0.6243606456
 C        -3.9591429064       -0.0755490282       -3.0431793613
 C        -4.1447390472       -4.3208512720       -1.9370562820
 C        -2.8217664149       -5.0717757136       -1.6836883392
 C        -2.4841954365       -6.2244276102       -2.6365693706
 C        -0.9068575638       -6.5356584143       -2.6577354855
 C        -0.2827469379       -7.1534937945       -1.4505501636
 C        -3.2563717056       -7.4952768008       -2.2975023909
 C        -2.8447320058       -5.7128639660       -4.1265762273
 O        -2.0143415833       -4.5294694612       -0.9430303966
 O        -0.2836842998       -6.2821045491       -3.6465547170
 C         0.8242725733       -6.1445751132       -0.8145324787
 C         1.2542100150       -6.5438823781        0.5469165492
 C         1.8109313790       -5.3364687949        1.6396031099
 C         0.4851999389       -4.8332334420        2.2594428884
 C         0.1751893172       -5.1665433152        3.7131231389
 O         0.9636486721       -7.6323437674        0.9823996547
 O        -0.2754138132       -4.0585448778        1.6592839165
 C         2.7956320304       -6.0066218306        2.6755698313
 C         2.3284486257       -4.1225211097        0.8080702596
 C        -1.3068095460       -5.4627730934        3.9453793773
 C        -2.3576348150       -4.3479572126        3.4155695629
 C        -2.4786782433       -3.0025404394        4.2398418429
 C        -1.3239868714       -2.0975854647        3.7290039357
 C        -0.3909985446       -1.5300109552        4.8492683797
 C        -3.8520163648       -2.4095391858        4.0061304660
 C        -2.4971362994       -3.4470004730        5.7302558812
 O        -3.0576446447       -4.6502351273        2.5032239461
 O        -1.2554936624       -1.6329112614        2.5639583964
 C         0.3270365149       -0.2664398779        4.4418241537
 C         1.9027525153       -0.3527684348        4.7225348208
 C         2.8022776532        0.6216820904        3.9943793583
 C         3.4305849774       -0.2486638859        2.5826444292
 C         4.9103570358       -0.4927660764        2.4270450575
 O         2.3810634377       -1.3010133998        5.3779517772
 O         2.5736209575       -0.4454270349        1.7923779916
 C         2.0858379043        1.8695893485        3.4423190787
 C         4.0365270605        1.0588318720        4.9167353016
 H        -3.3822206099        5.1866676363       -1.3936140022
 H        -4.7498378833        6.0614329889       -0.7508550518
 H        -3.7300047447        6.7928797712       -1.9456628240
 H         0.4911140437        9.0003714022       -0.1195602959
 H         0.3444567312        7.2940805255        0.0245408714
 H        -3.3023177948       10.0842220515        0.1574185387
 H        -4.3698348238        8.9454270157        0.7735297099
 H        -3.9585851289        8.9590777475       -1.0296620058
 H        -1.2317753810        7.6819483805        2.1933687632
 H        -0.9846989545        9.3780414354        1.4794256672
 H        -2.4973309608        8.8640906859        2.1277490889
 H         0.9646009853        8.7589918604       -2.5416744065
 H         2.1279054241        8.1412461658       -1.4437678661
 H         3.5617959073        4.8562100927       -4.3711084618
 H         3.1989601229        4.4530130332       -2.6974178689
 H        -0.6367550955        7.1770446228       -4.6465055597
 H        -1.1122891118        6.1081580548       -3.4063297289
 H        -0.6120066124        5.3020216361       -4.9596469544
 H         2.5111688554        6.3186397904       -5.4422009340
 H         1.6725439981        7.7787660878       -5.0107471695
 H         2.9002294357        6.9543867505       -3.9364773273
 H         4.4909454926        2.7572430725       -4.3049043561
 H         2.9455769441        2.1884127365       -4.7656579119
 H         0.6427114868       -0.1805884104       -1.3767366227
 H         0.4895465181        1.5724357471       -1.6768250997
 H         4.9991787434        0.1033660117       -3.3068274534
 H         3.7025208808       -0.2331317438       -4.4496748110
 H         4.0386228893       -1.3943050779       -3.3056681193
 H         4.3491996388       -0.2059985441       -0.9697055185
 H         3.0679145074        0.5835974225       -0.2568359234
 H         2.6861907935       -0.9974070391       -0.6820228072
 H        -1.2845881807        1.1394869732       -3.1956418989
 H        -0.5909783068       -0.3457423481       -3.6972228764
 H        -5.0121193639       -2.8425868938       -3.0183213586
 H        -3.2397306453       -2.6108653526       -3.0775974858
 H        -4.2795541486        1.3626693028       -0.9385883133
 H        -2.5229105267        1.1746389850       -0.5335649788
 H        -3.6601580259        0.3108466627        0.3645612842
 H        -4.9893832330        0.1605836994       -2.8153505644
 H        -3.6423092642        0.8386336491       -3.5384331433
 H        -3.9936946503       -0.8389457756       -3.8641741872
 H        -4.6802488341       -4.9952857712       -2.6200694822
 H        -4.8060417900       -4.2465963728       -1.0557223428
 H        -1.0573155570       -7.2749164073       -0.7117136143
 H         0.1094161720       -8.1401640939       -1.5974628833
 H        -3.4857618313       -7.9598908047       -3.3186478924
 H        -4.2704669088       -7.3533382923       -1.9902929289
 H        -2.7432722122       -8.3198119946       -1.7091174705
 H        -2.5839641161       -6.5105664727       -4.8945947992
 H        -3.8505389754       -5.3811100417       -4.4469837363
 H        -2.0734070503       -4.8593624452       -4.2310688636
 H         1.7287426757       -6.1248613132       -1.5263390285
 H         0.3675070455       -5.1723554287       -0.8203881408
 H         0.5799351267       -5.9597584807        4.3349433675
 H         0.4608420393       -4.2331381926        4.2601879492
 H         2.6469582296       -7.1047304771        2.6840260113
 H         2.5881598562       -5.6561729096        3.7210264529
 H         3.8139215470       -5.8223630385        2.5311465979
 H         1.5150060854       -3.7533475784        0.2157720423
 H         2.5216131312       -3.3858978936        1.6523487211
 H         3.1986375854       -4.4478288513        0.2844271651
 H        -1.4122984989       -5.4715447975        5.0428892229
 H        -1.6389708821       -6.5030074263        3.6953873936
 H        -1.0749525368       -1.3625919590        5.6915675638
 H         0.3403701007       -2.3403417799        5.1950513156
 H        -3.8918124274       -1.3588980997        4.1747374964
 H        -4.4880902988       -2.9408795616        4.6832803918
 H        -4.1673264170       -2.4801197984        2.9988954126
 H        -3.1911394786       -4.1573608215        5.8256251906
 H        -1.6059864436       -3.9196096892        6.0407292949
 H        -2.7998696298       -2.5441172386        6.3687522934
 H        -0.0294620569       -0.0997374273        3.4640735742
 H         0.1284607824        0.6281358066        5.1181776323
 H         5.4376079808        0.4508124469        2.6308540689
 H         5.1162191861       -1.2087010826        3.2057083195
 H         5.1150709405       -0.9050184997        1.4398929652
 H         2.0695847747        2.5708662077        4.2703183861
 H         1.0775860459        1.7028227174        3.0226308307
 H         2.5950121336        2.4817753081        2.7062567668
 H         4.8280676067        1.2340777591        4.2687336299
 H         3.8845542154        2.0407188010        5.2141487919
 H         4.1602255982        0.4695037340        5.8362877819
 Na       -2.1095639847       -2.7101670474        0.7303009343
