155

 C        -3.7422159579        6.1827950765       -1.1539259115
 C        -3.1259009634        6.6928637192        0.1116169603
 C        -2.5918524645        8.1297104855        0.1188166196
 C        -1.4738653597        8.1065066005       -1.0033306258
 C        -0.0152189147        7.9534308787       -0.5879280013
 C        -3.6205912295        9.2841748053       -0.3402595216
 C        -1.9774110261        8.4071395622        1.5523850107
 O        -2.8061606424        6.0041347894        1.0798234624
 O        -1.7893134805        8.2596709894       -2.1533526787
 C         1.0741324456        7.7726831359       -1.7314234826
 C         1.2951769946        6.3931782865       -2.1672949802
 C         1.1364953032        6.0556245190       -3.7330888107
 C         1.6679740264        4.6584595918       -3.9429993082
 C         3.1394576318        4.3628888588       -3.8367440597
 O         1.4460306910        5.4436412062       -1.4220301695
 O         0.8884864139        3.7538225794       -4.1351984293
 C        -0.3681121389        6.0834447343       -4.1572277057
 C         1.7874761013        7.1510177135       -4.6415689544
 C         3.3097975450        2.8042527330       -3.8528294281
 C         3.4102572326        2.1375889788       -2.5114958396
 C         3.1299711286        0.4359490494       -2.4414290731
 C         1.7225436532        0.2714752333       -3.0132289049
 C         0.4468198353        0.8149089414       -2.1845257873
 C         4.3279317832       -0.2036965566       -3.2247305979
 C         3.2158475516        0.1584300760       -0.8933992855
 O         3.5825286717        2.7375382492       -1.4700554178
 O         1.4871193934       -0.2978779362       -4.0289100621
 C        -0.9566071766        0.2703831424       -2.5491601765
 C        -1.6954304531       -0.7087850287       -1.5628966127
 C        -3.3038396369       -0.5056437944       -1.7557457403
 C        -3.9790732556       -1.8879387335       -1.3870303469
 C        -4.2068494303       -2.9604448649       -2.5078363290
 O        -1.2962642012       -1.5747246097       -0.8354822943
 O        -4.1940195465       -2.1724697729       -0.1887151799
 C        -3.7724827076        0.5330203716       -0.7211111060
 C        -3.6774871802       -0.0735815993       -3.1138632684
 C        -4.3302785005       -4.3917104834       -1.9176920649
 C        -2.9421944190       -5.0233338030       -1.8180253517
 C        -2.4176959404       -6.1055303258       -2.8567421629
 C        -0.7988976115       -6.3319234239       -2.7239714803
 C        -0.1397351097       -6.9349795829       -1.3744188743
 C        -3.1770498722       -7.3227608645       -2.3077192330
 C        -2.7055523025       -5.8638542473       -4.3125760697
 O        -2.1887772963       -4.7008268889       -0.9290461169
 O        -0.1352475670       -6.2989325910       -3.7407415111
 C         0.8601996651       -5.9751386378       -0.8062287566
 C         1.3457551410       -6.4364646495        0.6025098159
 C         1.8330530848       -5.2403546769        1.6390772779
 C         0.4503875649       -4.7124371095        2.2105603278
 C         0.0441962469       -5.0561774580        3.6287426388
 O         1.4751128100       -7.5715662968        0.9250643232
 O        -0.2864939066       -4.1195637005        1.4407197309
 C         2.8280545430       -5.8842767458        2.5601957972
 C         2.6692197903       -4.1694012656        0.8367429872
 C        -1.3947522173       -5.5822529397        3.8090702597
 C        -2.3227945518       -4.4840962500        3.3454884332
 C        -2.5104689652       -3.0126536969        4.2179880606
 C        -1.3821693777       -2.0314774173        3.8596772185
 C        -0.4874562558       -1.5421766719        4.9578296938
 C        -3.8191931203       -2.4116896253        3.6473173805
 C        -2.5130420459       -3.3451318993        5.7237111112
 O        -3.0125994943       -4.6629556971        2.3339586800
 O        -1.2804638654       -1.7310417627        2.7029726927
 C         0.3468961262       -0.2900018027        4.5721838594
 C         1.8660219169       -0.5740461491        4.7488450845
 C         2.8485065974        0.4899262565        4.0291682459
 C         3.3572667966       -0.1961727232        2.7463612518
 C         4.8800528140       -0.6897938028        2.5863862030
 O         2.2836025487       -1.4066993277        5.4617191172
 O         2.5591989944       -0.3856642810        1.8139602716
 C         2.0446186774        1.8015921039        3.5231182777
 C         3.9820380315        0.8336149462        5.0688571236
 H        -3.0807688938        5.5551878493       -1.6472356222
 H        -4.7239009771        5.6168864310       -0.9549870617
 H        -3.8792213631        7.1707397638       -1.7877932049
 H         0.2733879734        8.9135074834       -0.1345607491
 H         0.0556085196        7.1463650047        0.2344499189
 H        -3.3250343835       10.3081426507        0.0565576189
 H        -4.4771604725        9.1667627507        0.3478438218
 H        -3.7721506080        9.3525700712       -1.4144754139
 H        -1.0889343106        7.7986121926        1.6573037243
 H        -1.7149062016        9.4579364477        1.6130945360
 H        -2.7126079497        8.0677794595        2.3142555153
 H         0.6697590360        8.3443196373       -2.5450759269
 H         1.9497641830        8.2923142158       -1.5699616414
 H         3.6277098722        4.8342831132       -4.7225880156
 H         3.4780025773        4.7643936228       -2.9148813236
 H        -0.8586160684        6.7429897818       -3.4736892236
 H        -0.7526433003        5.0549514367       -3.8690712266
 H        -0.4974961023        6.2198924561       -5.1913584692
 H         2.3656042338        6.7261026601       -5.4669929381
 H         0.9966840696        7.7620821942       -5.0408703957
 H         2.4163979266        7.7932240311       -4.0358543363
 H         4.0918484217        2.5091728024       -4.5094510440
 H         2.4300413167        2.4150911288       -4.3992119685
 H         0.5059311805        0.8368473017       -1.0770141926
 H         0.4767444097        1.8447799318       -2.5999892586
 H         5.3035988152        0.1089441068       -2.8049951029
 H         4.2529916343        0.1668823464       -4.2891300218
 H         4.3630332996       -1.2443144962       -3.3025797388
 H         3.8774538620        0.8712681444       -0.4065702417
 H         2.2051088244        0.3202786258       -0.4519963655
 H         3.3518778455       -0.8761788340       -0.6985713376
 H        -1.5913214667        1.1593229930       -2.5400947657
 H        -0.9149313394       -0.0199617701       -3.5967213921
 H        -5.2223107279       -2.8302348026       -2.9232957562
 H        -3.4908532487       -2.6705560722       -3.2696943468
 H        -4.6920332871        0.9321317013       -1.0363833338
 H        -2.9554041262        1.2934907708       -0.5536110862
 H        -3.9173768263        0.0767960112        0.2698284405
 H        -4.7540186785       -0.1143073148       -3.3453598470
 H        -3.5490278251        0.9996546608       -3.2486451190
 H        -3.1930745400       -0.6236907872       -3.8702203637
 H        -4.9581339511       -5.0760696067       -2.4597771024
 H        -4.7596603051       -4.1692227594       -0.9303316522
 H        -0.7930239482       -7.2129226578       -0.5303158386
 H         0.3439317182       -7.8461834764       -1.7326604193
 H        -4.1223597510       -7.6519579501       -2.6803452902
 H        -3.3476364705       -7.2539108884       -1.1822216011
 H        -2.4872839304       -8.0877726877       -2.4158499866
 H        -2.3794530652       -6.7801883207       -4.7356277846
 H        -3.7878937241       -5.9000282749       -4.4820193208
 H        -2.3329655531       -5.0092744148       -4.7980510822
 H         1.6812609525       -5.8301106081       -1.4462403394
 H         0.2736155931       -5.0095103227       -0.7115555125
 H         0.6761261813       -5.7779258815        4.1280833755
 H         0.2348359689       -4.1636683844        4.2528972914
 H         2.4653355407       -6.5786170996        3.2689178904
 H         3.4575042086       -5.1620654414        3.0621995762
 H         3.4688722509       -6.5155831817        1.8573012083
 H         1.9214682006       -3.5709744722        0.2706378398
 H         3.2105684629       -3.6756914350        1.5585240748
 H         3.2921959696       -4.7528532612        0.1156883631
 H        -1.8102125531       -5.9442176740        4.7857202141
 H        -1.5359674284       -6.4027286111        3.0904016092
 H        -1.1708892772       -1.2048615927        5.7630267437
 H         0.0541935806       -2.3740803542        5.3721203435
 H        -3.9335581098       -1.3936936039        4.0197634390
 H        -4.7215620513       -2.9171164206        4.0302878054
 H        -3.7702446920       -2.3213141841        2.5704760394
 H        -3.2230170734       -4.2086748570        6.0451069529
 H        -1.5002797152       -3.5554185401        6.1274734406
 H        -2.7753629307       -2.4356019327        6.1938705115
 H         0.0825340622       -0.0709845566        3.4619134696
 H         0.1789403270        0.5873311448        5.1720228863
 H         5.4939755526        0.2157552676        2.4661203889
 H         5.1460671216       -1.2748665602        3.5081550992
 H         5.0043696643       -1.3588225691        1.7146187092
 H         1.1748717681        2.2290126324        3.9797902324
 H         2.0296149710        1.8115047091        2.4187496916
 H         2.7416637697        2.6575322531        3.7417332364
 H         4.5368454615        1.7239606058        4.6360544218
 H         3.5504439748        1.1405872790        6.0865518736
 H         4.5604241868       -0.0457735005        5.2787226590
 Na       -2.1485583604       -3.0322950694        0.7514091665
