155

 C        -4.8309561299        6.5801837586       -1.9336728244
 C        -3.9951361494        6.6715613660       -0.6231427572
 C        -3.5873694066        8.1074050556       -0.1102293335
 C        -2.3861045925        8.5392185140       -1.1118020089
 C        -0.9905293922        8.8530641146       -0.6051554201
 C        -4.7241770831        9.0539394976       -0.4337587308
 C        -3.2061216999        8.0298764157        1.3591559870
 O        -3.6708904086        5.8079012994        0.1767987157
 O        -2.6719397980        8.5819954435       -2.2611636638
 C         0.0226809938        8.5752012376       -1.7422940222
 C         0.7854529681        7.2460366637       -1.8053001329
 C         0.7175867104        6.4569933153       -3.2914861406
 C         1.2998628267        4.8824520211       -3.1727527848
 C         2.6653686347        4.6237639105       -2.5215479828
 O         1.5003915228        6.8879979342       -0.9119310896
 O         0.5596036671        4.0035457564       -3.4188336870
 C        -0.6365881041        6.3059150498       -4.0008698680
 C         1.7565728480        7.3147992416       -4.1174823588
 C         3.3093144643        3.2103564561       -2.7161982743
 C         3.2498591078        2.2579807504       -1.4322702158
 C         2.9895995161        0.7542001685       -1.7975162659
 C         1.4123377026        0.6012489959       -2.4242512567
 C         0.3482686438        1.5102851964       -1.9193281510
 C         3.9516312025        0.4078744504       -2.9556630213
 C         3.1689697153       -0.0840421393       -0.5204358667
 O         3.4167182576        2.6979557498       -0.3250801192
 O         1.1651800537       -0.1494686248       -3.3411378889
 C        -1.0223459385        1.1304242401       -2.4830946978
 C        -1.7126045731       -0.0816730846       -1.9201960351
 C        -3.0922590930       -0.5155822622       -2.5673096838
 C        -3.3348817633       -1.9966671911       -2.2612129410
 C        -3.0081348714       -3.0891933807       -3.3749971443
 O        -1.1374744357       -0.7362014708       -1.0270918787
 O        -3.7375002211       -2.3260244990       -1.2159995320
 C        -4.3040757552        0.2014577282       -1.9390888534
 C        -3.1748381299       -0.1729462105       -4.0787709177
 C        -3.1582305283       -4.4232783552       -2.6090493702
 C        -1.7722112552       -5.1841696501       -2.2044039620
 C        -1.2053341464       -6.2408163082       -3.2197739555
 C         0.3199725723       -6.5440438425       -3.1657202846
 C         0.8713069369       -6.8525143066       -1.7744898401
 C        -1.9258701172       -7.5393506743       -2.8426063744
 C        -1.6650071188       -6.0157290556       -4.7095449808
 O        -1.0711995157       -4.8530897839       -1.2627184766
 O         1.0604353911       -6.4657554476       -4.1287605837
 C         1.6900918515       -5.6679116776       -1.1407245002
 C         2.1041165268       -6.0989942064        0.2679460176
 C         2.5046766846       -4.7106848642        1.0996630113
 C         1.0609254943       -4.4123502354        1.6832628070
 C         0.5782788350       -5.3928651129        2.6943256681
 O         1.8874752094       -7.1703454501        0.8250283653
 O         0.4204034246       -3.4706941077        1.2731841703
 C         3.5314951779       -4.9718943651        2.1943571893
 C         2.9598530253       -3.5267372708        0.2428787794
 C        -0.9427150403       -5.8325288454        2.6613089216
 C        -1.9566475998       -4.7086620353        2.4757511480
 C        -2.4919062114       -3.8050725607        3.6995976280
 C        -1.8755907914       -2.3036216169        3.5427003745
 C        -1.3916042207       -1.3992090563        4.8346566131
 C        -3.9616867471       -3.5171380436        3.3996511477
 C        -2.2688048228       -4.2730529382        5.1293557145
 O        -2.5774952680       -4.5424240478        1.4263496601
 O        -1.9676496036       -1.7151589384        2.4842620762
 C        -0.1146759095       -0.5495990233        4.6643009432
 C         1.0156508462       -1.2085165507        5.4590578311
 C         2.3995913347       -0.5815826497        5.6074248050
 C         3.2649260870       -1.3966585096        4.4415726316
 C         4.6116005119       -2.0296277452        4.6445791695
 O         0.8155229746       -2.3260099814        5.9694993866
 O         2.7302207556       -1.5785625138        3.3893909214
 C         2.3548083469        0.9609198327        5.3439262133
 C         2.8947788062       -0.8374039023        7.1665351654
 H        -5.2465155573        5.5332952287       -2.1352359312
 H        -5.6571754617        7.2039381334       -1.6761949659
 H        -4.3682219632        6.9143485566       -2.7926489037
 H        -1.1466491683        9.8812111147       -0.3192799484
 H        -0.8918568079        8.3552439153        0.3308042409
 H        -4.7288864572       10.0252087514        0.0772017564
 H        -5.7539101848        8.7588502832       -0.1036431249
 H        -4.6516044079        9.3451105350       -1.4200892107
 H        -2.1951968880        7.4818615538        1.4939659530
 H        -3.1083168998        8.9503795130        1.8594723498
 H        -3.9565519758        7.3922703150        1.8006527469
 H        -0.3650036753        8.7412814913       -2.6909012476
 H         0.8025135362        9.3275680737       -1.7053636304
 H         3.2833195681        5.5475972689       -2.6415580398
 H         2.4478258506        4.6961777635       -1.4463223743
 H        -1.1730062560        7.2343770286       -3.8040349178
 H        -1.1784500309        5.5966101787       -3.4492916713
 H        -0.5416066712        5.9290048327       -5.0444026075
 H         1.2011960608        7.9302054916       -4.8240271283
 H         2.3246952269        7.9461199403       -3.4499161957
 H         2.5949774672        6.8373525827       -4.6566575045
 H         4.3628781407        3.2121086710       -3.0298235091
 H         2.7218518125        2.6846138204       -3.4459688634
 H         0.2896582439        1.6004685884       -0.8421389036
 H         0.6062388416        2.5575411253       -2.1764433376
 H         4.8693307182        0.8791858879       -2.6491241744
 H         3.7709690420        0.8041495133       -3.9381825172
 H         4.2370390775       -0.6528390170       -2.8726093084
 H         4.2350860314       -0.1188467074       -0.3968830831
 H         2.7303874370        0.3528324643        0.3130094497
 H         2.7648613512       -1.0452611049       -0.7175384956
 H        -1.7354811723        1.9084102402       -2.2878542066
 H        -0.8142823638        1.1222602465       -3.5802162374
 H        -3.9276017354       -2.9253663214       -3.9836966417
 H        -2.1377057553       -3.0720197341       -3.9544183853
 H        -5.2083215372       -0.2985956165       -2.1757243430
 H        -4.3201257631        1.3111580504       -2.2258375799
 H        -4.0676807521        0.2794910079       -0.8851180759
 H        -4.1295192544       -0.4392894361       -4.4899086575
 H        -2.9573264648        0.8768148306       -4.0918009413
 H        -2.3540033083       -0.7396122276       -4.5727183164
 H        -3.8132701146       -5.1963523135       -3.0751666336
 H        -3.6481492149       -4.2520345783       -1.6409184838
 H         0.1808529667       -7.2787294468       -0.9958779553
 H         1.5445907973       -7.7016399100       -2.0076107848
 H        -1.4582943140       -7.9213828595       -1.9199670125
 H        -1.9865823441       -8.3796262821       -3.5880993206
 H        -2.9523059747       -7.2352632318       -2.5868276211
 H        -2.7816433241       -6.0622685444       -4.8310363676
 H        -1.2503615076       -5.0154126022       -4.9798954008
 H        -1.0688370430       -6.6874258684       -5.3345766039
 H         2.6376508047       -5.4558065412       -1.7194296439
 H         1.1189031482       -4.8045262087       -1.2154625624
 H         1.0683894519       -6.3959452660        2.6581641486
 H         0.7066051489       -4.8800387555        3.6876667682
 H         3.4207851729       -6.0017462639        2.6371039759
 H         3.3630918291       -4.1776200174        2.9298036161
 H         4.4991190900       -4.8245714834        1.8583290970
 H         2.1874752637       -2.9948773245       -0.2828655568
 H         3.5021318366       -2.7437007828        0.8983526134
 H         3.5984063996       -3.9169456150       -0.5211920653
 H        -1.2316180300       -6.3152320428        3.5598915215
 H        -1.2563623224       -6.4972664901        1.8555570551
 H        -2.3072308326       -0.8986207160        5.1318934450
 H        -1.2609967772       -2.0403339841        5.6885073344
 H        -4.4801264823       -3.0880811998        4.2410331836
 H        -4.4677582128       -4.4025567914        3.2700577829
 H        -4.0184787836       -2.9113471149        2.5125498936
 H        -2.9121169753       -5.1644852820        5.4781782519
 H        -1.2097960048       -4.5274110256        5.3674161821
 H        -2.6080736195       -3.5463178149        5.7968177759
 H         0.0850128477       -0.3047338640        3.5719166398
 H        -0.3356460220        0.4969053766        5.1165365882
 H         5.3417268203       -1.2448789004        4.4478715461
 H         4.7820968829       -2.3822240690        5.6461965141
 H         4.7407224501       -2.8402338509        3.9381927309
 H         1.4986514898        1.4070893952        6.0426513679
 H         2.1103787624        1.1541695285        4.3052001726
 H         3.2664377502        1.5547277997        5.5213017705
 H         3.8139037219       -0.3689651306        7.4540779785
 H         2.0412373363       -0.6890643094        7.8302143917
 H         3.1995178181       -1.8479237836        7.3884005152
 Na       -1.7465476424       -2.8581725142        0.0511056117
