155

 C        -5.0625218353        6.6158920636       -2.1708783968
 C        -4.1655616546        6.6208475411       -0.9257838022
 C        -3.5714050351        8.0119398793       -0.2828990214
 C        -2.4883976503        8.6285523596       -1.3088176829
 C        -1.1377796385        9.1313755481       -0.8052247855
 C        -4.7127112056        9.0381378814       -0.2962559307
 C        -3.2557725006        7.8265249859        1.1557792436
 O        -4.0202589957        5.6184124810       -0.2886701024
 O        -2.8674613873        8.7199041965       -2.4652086649
 C         0.0794656068        8.7666443815       -1.7766087641
 C         0.4227795124        7.3311960787       -1.7215938053
 C         0.5618720398        6.6496384195       -3.1309177721
 C         1.0349320049        5.2129058509       -2.9783256299
 C         2.3647597517        4.9766487784       -2.1310104009
 O         0.6147869059        6.7569007771       -0.6664433929
 O         0.3436165755        4.2719542797       -3.3037000631
 C        -0.8344402773        6.7116001520       -3.7366392187
 C         1.6011055359        7.4432406284       -3.9411614179
 C         2.9970874385        3.5605118887       -2.3961470474
 C         3.0402407870        2.5759769518       -1.1779470184
 C         2.9589741243        1.1044487098       -1.7010165869
 C         1.3934067588        0.8675468842       -2.2765835402
 C         0.2805637071        1.7079595948       -1.6100459385
 C         3.9016855247        0.6872146568       -2.8118728850
 C         3.0329522877        0.0992938926       -0.4911253862
 O         3.0739156628        2.8467573914       -0.0374076675
 O         1.2525926372        0.1919044826       -3.3240109909
 C        -1.1549529522        1.4564299912       -2.0943951152
 C        -1.5154621874       -0.0654540301       -1.7507336942
 C        -2.8953322057       -0.6747975627       -2.4386793765
 C        -2.9929112478       -2.1481397364       -2.2155340414
 C        -3.1428622452       -3.1040449188       -3.4501269909
 O        -0.8122178008       -0.7457156836       -1.0500056112
 O        -3.4705331340       -2.5386681351       -1.0906922244
 C        -4.0856060015        0.0051639934       -1.8050392563
 C        -2.7676817738       -0.3142692663       -3.9613950060
 C        -2.9425463679       -4.5875770584       -3.0269367612
 C        -1.4699230349       -5.0155031917       -2.7816963292
 C        -0.9322257869       -6.3026459781       -3.5798096784
 C         0.5112278754       -6.6182428890       -3.0740177163
 C         0.7372456044       -6.6632346769       -1.5579541827
 C        -1.8153608636       -7.4856987786       -3.2621577051
 C        -0.9274335100       -5.9229713737       -5.0413490481
 O        -0.7079065507       -4.2805249274       -2.1644859083
 O         1.4072125625       -6.6177213021       -3.8671552897
 C         1.7983489329       -5.6914729427       -1.1752669510
 C         2.3336793615       -6.0058791727        0.2578711661
 C         2.7289923494       -4.7552400982        1.1820693567
 C         1.3109255963       -4.1440572824        1.4989799723
 C         0.5809755606       -4.6037060334        2.8566239353
 O         2.7534273559       -7.0840117625        0.5417425423
 O         0.7706199539       -3.4149094582        0.7006222200
 C         3.3707432137       -5.3968815912        2.4408578217
 C         3.7749337132       -3.8836316001        0.3341873475
 C        -0.6316999618       -5.5064023554        2.7327634426
 C        -1.9480583481       -4.7153797071        2.4529683785
 C        -2.6665456101       -3.8712836871        3.4769638660
 C        -1.9297413055       -2.4542766491        3.4097779616
 C        -1.7918225872       -1.4353257076        4.5768488006
 C        -4.1229604567       -3.5564369165        3.2488502086
 C        -2.4716314753       -4.5627327258        4.9055600594
 O        -2.4461021865       -4.8162458484        1.3423687352
 O        -1.5834728554       -2.0546400355        2.3232368316
 C        -0.4461611546       -0.6588486800        4.6132349766
 C         0.6047349169       -1.6606503304        5.3193889478
 C         2.0833245928       -1.1489408272        5.7777633423
 C         3.2138169347       -1.8827025747        4.9828338572
 C         4.6369606731       -1.5536392291        5.5061061911
 O         0.2862507832       -2.7839793484        5.6859066606
 O         2.9906099604       -2.6260735266        4.0512394097
 C         2.2529302978        0.4278938998        5.4709019132
 C         2.1842503607       -1.4159681699        7.3151977585
 H        -4.9948380760        7.5469052921       -2.7570189830
 H        -4.8365834158        5.6688943710       -2.8328775719
 H        -6.0880275277        6.6179456765       -1.7886387019
 H        -1.2016217052       10.1635874905       -0.8157160094
 H        -1.1337630028        8.6859620856        0.1675485038
 H        -4.5613625617        9.8432627299        0.4202200457
 H        -5.7516631833        8.7355786140       -0.1108184042
 H        -4.8615705208        9.5092954545       -1.3204539567
 H        -2.4763126179        7.1031768683        1.3382395956
 H        -2.9893008903        8.8215711929        1.6090709714
 H        -4.0581872778        7.5147079223        1.7937861719
 H        -0.1034693196        9.2036394234       -2.7848345289
 H         0.9851974470        9.3001614522       -1.4783670813
 H         3.0960946179        5.7968144127       -2.2935378564
 H         1.9961164339        5.0102409308       -1.0542584333
 H        -1.1920089996        7.7037709966       -3.9400168396
 H        -1.4752194335        6.1694929853       -3.0188645428
 H        -0.8938131862        6.1645396693       -4.6624503075
 H         1.4974218196        8.5254461273       -3.7589638426
 H         2.6427596200        7.3382245878       -3.7180225332
 H         1.3811895728        7.3805345876       -4.9920062465
 H         4.0464313850        3.5873484666       -2.7086270531
 H         2.4677731043        3.0094683743       -3.2406733144
 H         0.4051266204        1.5210292026       -0.5347218807
 H         0.4170116294        2.7631415144       -1.4872107977
 H         4.8255993684        0.2101120918       -2.4878771603
 H         4.1463044329        1.4686988459       -3.4708273846
 H         3.2731686772        0.1185283256       -3.5323140286
 H         3.7879832722        0.4089441679        0.1431607240
 H         2.1414430395        0.1276412447        0.0499537655
 H         3.3203790271       -0.8894559343       -0.8439942465
 H        -1.8658870825        2.1987956195       -1.6121816339
 H        -1.1307346739        1.7885784515       -3.1052274737
 H        -4.2425061972       -3.1634073164       -3.7500234281
 H        -2.5086743844       -2.8160033837       -4.2996674394
 H        -5.0741915188       -0.4378908213       -1.8558034353
 H        -4.1679989865        1.0117797438       -2.3556890136
 H        -3.8832379003        0.0645667722       -0.8173880125
 H        -3.7642634081       -0.4813576894       -4.4482749900
 H        -2.4792852207        0.7238141661       -4.1064727012
 H        -1.9633950272       -0.8865817268       -4.3621610511
 H        -3.3176880472       -5.1977043916       -3.8475251696
 H        -3.3636974115       -4.8690343427       -2.0044893010
 H        -0.0907247240       -6.4122791875       -0.8890900986
 H         1.1288104987       -7.7043615093       -1.3735847379
 H        -2.1393232444       -7.4630099754       -2.2412190225
 H        -1.3434364314       -8.3824008861       -3.4898496705
 H        -2.7390480004       -7.2819350642       -3.9031983369
 H        -0.4007249921       -6.6630925732       -5.7058179721
 H        -1.9884762801       -5.9588304825       -5.2376336062
 H        -0.5500192445       -4.8571317912       -5.2314819322
 H         2.6596164486       -5.5921577545       -1.9427108053
 H         1.3000357002       -4.6440685335       -1.1809301846
 H         1.1770822110       -5.2874307413        3.4416806196
 H         0.4619300014       -3.7529056681        3.5243457523
 H         2.9244764276       -6.3017996555        2.7406084791
 H         3.4898297062       -4.7503954621        3.3508295110
 H         4.3800129843       -5.5694435063        2.0639748456
 H         3.4831429839       -3.5160881985       -0.6320694609
 H         3.9543162283       -2.9533689542        0.9133866244
 H         4.7632279130       -4.3121962212        0.3154388240
 H        -0.8028148682       -5.9429786166        3.7869973385
 H        -0.5812074282       -6.2334923005        1.9297727022
 H        -2.6054055891       -0.7112280394        4.4868994815
 H        -1.9734693489       -2.0484154254        5.4494000177
 H        -4.4513583103       -3.1278193165        4.1442852864
 H        -4.6557990768       -4.3567406513        2.8896300761
 H        -4.2051678553       -2.7983089904        2.5104116809
 H        -2.7279102161       -5.5913763629        4.9035735297
 H        -1.4497339346       -4.3923819585        5.3635504263
 H        -3.1716945147       -3.9616989882        5.5796891428
 H        -0.1106071217       -0.8037379527        3.5833530019
 H        -0.5720449908        0.3396643156        4.8099147852
 H         4.6223514422       -0.9612604774        6.4166129310
 H         5.3218769313       -2.4078927530        5.4834098644
 H         5.1319044154       -0.9003924364        4.7609963098
 H         1.4666540063        0.9131710457        6.0555776632
 H         2.0948097911        0.8164255888        4.4379173404
 H         3.2315368077        0.6835617341        5.9501203532
 H         2.7590041186       -0.7401499554        7.9055245713
 H         1.2412969549       -1.2683670022        7.8005442445
 H         2.5307952169       -2.5072667998        7.4136742260
 Na       -1.6089740387       -2.9017575089       -0.0490175992
