155

 C        -6.0005834390        7.2760416964       -2.5175091401
 C        -4.7940127804        6.7921677090       -1.6087481588
 C        -4.3864318131        7.8754278146       -0.4881766340
 C        -3.2843592848        8.8849077324       -1.2226716516
 C        -1.8463112656        9.1102086704       -0.5308992963
 C        -5.5790217048        8.7825162812       -0.1018268461
 C        -3.8281825275        7.1131582259        0.8126751336
 O        -4.2433993677        5.7365537825       -1.7725917289
 O        -3.7517153415        9.6088454591       -2.0638559055
 C        -0.5436091603        9.0649325397       -1.2721043305
 C        -0.0209606918        7.5134314795       -1.5405924488
 C         0.4913353104        7.1729359721       -3.0242022940
 C         1.3323878247        5.9061484157       -2.8722465296
 C         2.6514856398        5.8993876511       -1.9002729991
 O        -0.2521589689        6.5725209563       -0.8344709413
 O         0.9127493694        4.8439080216       -3.3756242168
 C        -0.8669399409        6.8787864811       -3.7012079108
 C         1.2133625231        8.3552326056       -3.7339116703
 C         3.3288127181        4.5047759051       -1.8318970867
 C         2.6822821541        3.5189045906       -0.8135908988
 C         2.5317329831        1.9637193346       -1.2166772555
 C         1.0538956676        1.7833260323       -1.8664530752
 C        -0.2367620471        2.3699870576       -1.2079952929
 C         3.5457336702        1.3208299863       -2.2042295683
 C         2.3363089399        1.0910567646        0.0916406473
 O         2.1027357637        3.9310011507        0.2103894569
 O         0.9370379774        1.1415905668       -2.8765535538
 C        -1.4668090038        1.6992548118       -1.8970408093
 C        -1.5185550942        0.2365533359       -1.7400065986
 C        -2.7255407665       -0.4688301385       -2.4237897754
 C        -2.4415598147       -2.0721709801       -2.5254202494
 C        -2.3064436119       -2.7525818362       -3.8557032485
 O        -0.6688703114       -0.4333764244       -1.1765350587
 O        -2.2674971414       -2.6155617605       -1.4740478187
 C        -3.9474979736       -0.4106725183       -1.3494135467
 C        -3.2615283124        0.1660119762       -3.7226063738
 C        -2.1324609290       -4.2767752381       -3.7471796435
 C        -0.5972843839       -4.5634264144       -3.4436163840
 C        -0.0129076960       -5.9435015180       -3.8526081185
 C         1.3157481051       -6.1715788896       -2.9104960169
 C         1.1711747748       -6.9802845530       -1.4939291777
 C        -1.2120952916       -6.8995382125       -3.7766780438
 C         0.5941901800       -5.8994043463       -5.2908436493
 O         0.0577640191       -3.7206160900       -2.8549051836
 O         2.3809396288       -5.7882936345       -3.3481604530
 C         2.6145135749       -7.2166066107       -1.1067599198
 C         2.8450460892       -7.0949823329        0.3958164546
 C         3.3586992523       -5.6639817089        0.9471165618
 C         2.0708442730       -4.8171863408        1.2005770155
 C         1.3588928439       -4.9119479683        2.5755886945
 O         2.5122506313       -7.9610603994        1.1734763780
 O         1.5870004073       -4.1156985801        0.3618055108
 C         4.1877879805       -5.9942728430        2.1914449132
 C         4.1591136284       -4.9218858389       -0.0390955389
 C         0.0703567160       -5.8755969437        2.5929518337
 C        -1.1816106509       -5.2802719536        1.8624165829
 C        -2.2523210905       -4.5433563277        2.6657960704
 C        -1.6837222108       -3.0914196114        2.8385635601
 C        -2.2929392815       -2.0827651472        3.8568679739
 C        -3.5976094905       -4.2949958680        1.8296556228
 C        -2.6997013013       -5.2279774650        4.0515736128
 O        -1.1468692172       -5.0927610499        0.6372404484
 O        -0.7594038422       -2.6710506346        2.1568837840
 C        -1.1370893924       -1.3751672648        4.5713061260
 C        -0.3697450615       -2.2574335661        5.7434243139
 C         0.7387969615       -1.6705574525        6.5677329965
 C         2.1785705417       -2.2632031144        6.0171344119
 C         3.4558183740       -1.8029708481        6.7385007001
 O        -0.7614490107       -3.4265750327        5.9149352736
 O         2.2930708478       -3.0297992888        5.1239457492
 C         0.8748322417       -0.1633295145        6.7557877778
 C         0.5883270531       -2.2951260171        8.0040035975
 H        -6.8920103841        7.2406716859       -1.9439490662
 H        -5.8172879402        8.2783072642       -2.9120345102
 H        -6.0428185072        6.6618429412       -3.2718159466
 H        -1.8061969421       10.0560330881        0.1215155825
 H        -1.8088150572        8.4213456212        0.3508045459
 H        -5.1086075391        9.5129566769        0.5971518025
 H        -6.5174493725        8.3270760696        0.2755504527
 H        -5.8939801790        9.3328894302       -1.0071922926
 H        -3.1025184467        6.3780122072        0.5642108192
 H        -3.4240725267        7.8061547972        1.5307747427
 H        -4.6152117577        6.6285344228        1.4280285450
 H        -0.7020709847        9.7697769771       -2.1126644754
 H         0.2681453543        9.4494593819       -0.6099304255
 H         3.3135592464        6.6620302658       -2.3953558167
 H         2.3671100311        6.3013521266       -0.9240953702
 H        -1.5093806996        7.7300533038       -3.8728518051
 H        -1.4759349896        6.0885906323       -3.3874264859
 H        -0.5278161630        6.6178475459       -4.7202270538
 H         0.5136336198        9.1829722750       -3.9045168466
 H         2.0385495507        8.7830851236       -3.1700991698
 H         1.4631356360        8.0122818574       -4.7642862341
 H         4.3953743609        4.6297701991       -1.5976469007
 H         3.3272389406        3.9366300979       -2.8481284872
 H        -0.2042272784        2.2796034997       -0.1067620219
 H        -0.3147171545        3.4172952669       -1.5879857528
 H         4.5404684186        1.6234068182       -1.9047306128
 H         3.2786040664        1.6598905302       -3.2251113430
 H         3.3943481419        0.2836775712       -2.3243181745
 H         3.0578282983        1.2863447259        0.8702379296
 H         1.4040222624        1.1708953422        0.5645324562
 H         2.6018538671        0.1386869476       -0.1509091750
 H        -2.4124645675        2.0972081010       -1.3964871701
 H        -1.3479312708        2.0352867927       -2.9162473509
 H        -3.1625756203       -2.3934230078       -4.5300926776
 H        -1.4540197128       -2.5041394963       -4.3871037100
 H        -4.8217507329       -1.0680900053       -1.6812337050
 H        -4.3878711998        0.5797882224       -1.2564367437
 H        -3.6621890584       -0.8168591275       -0.4265408444
 H        -3.9563645346       -0.4247822634       -4.2795596097
 H        -3.7566819606        1.1120792113       -3.5631974597
 H        -2.4417276147        0.4359433391       -4.4121487796
 H        -2.5331217167       -4.8573888999       -4.5747586571
 H        -2.7566124529       -4.6198210153       -2.9287456435
 H         0.5332129580       -6.4545194198       -0.7905007223
 H         0.6587847097       -7.8521215650       -1.7755355511
 H        -2.0442794578       -6.7472222017       -3.1025338531
 H        -0.8758753039       -7.9535707516       -3.5493873723
 H        -1.5881815314       -6.9170208344       -4.7353818011
 H         1.2786827424       -5.0581286626       -5.5018523006
 H         1.1040353276       -6.8911009595       -5.5867576380
 H        -0.1259923799       -5.8157168552       -6.0917363342
 H         2.9797217732       -8.1792500255       -1.3115240038
 H         3.3177534676       -6.5890052270       -1.6016027639
 H         2.0179997551       -5.6046696144        3.1107170952
 H         1.0838892353       -3.9036816279        3.0069931135
 H         3.6877701849       -6.8200816328        2.7933234760
 H         4.5552910879       -5.1874039334        2.7904544044
 H         5.0739035189       -6.5354171796        1.8804206974
 H         3.5687800316       -4.2703423317       -0.6886350134
 H         4.9176125984       -4.2586907630        0.3572644881
 H         4.8171976734       -5.5552828311       -0.6357217748
 H        -0.2410554876       -5.9928168114        3.5879692766
 H         0.1979209772       -6.8133248606        2.0903466838
 H        -2.9147870425       -1.3212018462        3.3590412249
 H        -3.0356987241       -2.5606463359        4.5166108978
 H        -4.2450822157       -3.6334362201        2.2969879483
 H        -4.0309192023       -5.2907769188        1.7702728340
 H        -3.4933977767       -4.0949467589        0.8301583746
 H        -2.2110728515       -6.2328581999        3.9932731562
 H        -2.3560039040       -4.7207920483        4.9208660938
 H        -3.7720096764       -5.2581486721        4.0993629231
 H        -0.4544892159       -0.9851455367        3.8369728647
 H        -1.5234269043       -0.5225476377        5.1915878592
 H         3.4638091597       -0.7140680231        6.6560484740
 H         3.2791241249       -2.0757505533        7.7686411302
 H         4.3967095890       -2.2472105323        6.4124187678
 H        -0.0969690655        0.3059400828        6.9855062140
 H         0.9632915093        0.1892809771        5.7387106241
 H         1.7041618169        0.0866975319        7.3989698015
 H         1.4114670815       -1.9414717309        8.6675318934
 H        -0.2603248436       -1.8244961538        8.5804882955
 H         0.5539746653       -3.3600162775        7.9392566688
 Na       -0.2593393998       -2.7551100392       -0.2132317501
