155

 C        -6.2760710395        7.4057148103       -2.8466271738
 C        -5.1869960944        6.9267554362       -1.8680831336
 C        -4.9280250650        7.7591614467       -0.5427951154
 C        -3.8488113608        8.8290267231       -1.0974278331
 C        -2.5992608417        9.1096779990       -0.3076835790
 C        -6.1865794359        8.5062565732       -0.0041039257
 C        -4.3868210378        6.8260011565        0.4492591739
 O        -4.4782025024        5.9614456751       -2.1287222268
 O        -4.0453715933        9.3338965433       -2.1856689113
 C        -1.3654746319        9.1220682168       -1.2762537620
 C        -0.7145631511        7.7796094918       -1.4205709217
 C         0.1571864752        7.6685781764       -2.6270735472
 C         0.8364551013        6.1723600152       -2.7654143925
 C         2.2419109664        6.0941801997       -2.0814191961
 O        -0.8148023830        6.8069783917       -0.6269178676
 O         0.2889519930        5.2157629121       -3.2387444274
 C        -0.8251976471        7.8407810881       -3.8837331147
 C         1.2203070827        8.7284193599       -2.4871489261
 C         2.9785590549        4.7699850694       -1.9961460143
 C         2.6737825488        3.9310895206       -0.6602446401
 C         2.8016764796        2.3627037690       -0.8333146537
 C         1.5560387007        1.7244378639       -1.6012800619
 C         0.1202257962        2.1821997991       -1.2905834518
 C         4.1143892623        2.0797491566       -1.5732093964
 C         2.8371692004        1.7626301582        0.4947711911
 O         2.5896595593        4.3695118339        0.4790381621
 O         1.7733840559        0.7357321886       -2.2963928699
 C        -1.0455319070        1.3795839990       -1.8334918244
 C        -1.1107578459       -0.0812501193       -1.4318430820
 C        -2.3772123426       -0.8668155382       -1.8025380462
 C        -2.0555771634       -2.1539204616       -2.5457277540
 C        -0.8663964597       -2.0944394177       -3.5911609252
 O        -0.1762224543       -0.6283063744       -0.7669345996
 O        -2.5831701673       -3.2019522473       -2.2509298915
 C        -3.1197136537       -1.2571869664       -0.4978921396
 C        -3.4282808250        0.0290961889       -2.5997994867
 C        -0.5613714566       -3.4781427585       -4.1730017867
 C         0.4470517412       -4.3964779058       -3.4399206427
 C         1.0346607427       -5.5627036984       -4.1148655986
 C         1.9318220534       -6.5744297441       -3.0661816889
 C         1.4817306364       -6.9063608804       -1.6185586262
 C         0.0572032979       -6.4289072194       -4.9164411250
 C         2.0697576386       -5.1197585530       -5.2072925313
 O         0.7628434720       -4.1590957830       -2.2951188205
 O         2.8535906987       -7.1761134827       -3.5734021172
 C         2.5534867113       -7.6095449334       -0.9135444287
 C         3.0189625451       -6.9423622473        0.4150300848
 C         3.3407343848       -5.4004071871        0.4064354389
 C         1.9924236745       -4.6545132450        0.8773137446
 C         1.3382969379       -5.0312865639        2.2257147003
 O         3.1163387427       -7.6004469842        1.4290550397
 O         1.6245716613       -3.6509959656        0.2803553194
 C         4.4325547182       -5.0919604738        1.4861661690
 C         3.9155996700       -4.8441648913       -0.9367348642
 C         0.1980807064       -6.0564736197        2.0293424089
 C        -1.0115263180       -5.3301416944        1.4317347036
 C        -2.3073354915       -4.7288567087        2.3062372901
 C        -1.8107470053       -3.2819443734        2.6245978011
 C        -2.5736613171       -2.5436347886        3.7187611939
 C        -3.5786419635       -4.7331028009        1.2903204473
 C        -2.6074437453       -5.6396022058        3.5577080808
 O        -1.0507403504       -5.2089152321        0.2082001186
 O        -0.9730054679       -2.6971125654        1.9309963252
 C        -1.6358353601       -1.7848091607        4.7665894908
 C        -1.2705782751       -2.7524608229        5.9846690664
 C        -0.1353285136       -2.2610744762        6.9440229245
 C         1.1902573361       -2.0995624361        6.1290203982
 C         2.3850568197       -3.1234946475        6.4025992696
 O        -1.8408826870       -3.7956174590        6.1673186950
 O         1.3692887032       -1.1651846504        5.3242326779
 C        -0.3954008137       -0.8434927368        7.5836533599
 C        -0.0457455350       -3.2603037533        8.0424171928
 H        -7.3339770628        7.2024019182       -2.4709166155
 H        -6.1839751783        8.5306220402       -2.9108855320
 H        -6.1022648474        6.8408485665       -3.7264898960
 H        -2.7405319180       10.0954345466        0.0861932236
 H        -2.3360857259        8.3712098650        0.3752916769
 H        -5.9149762747        8.9434964318        0.9560648819
 H        -6.9215082343        7.7391841669        0.1589273792
 H        -6.5243993822        9.2519158944       -0.7561670578
 H        -3.6729795808        6.2379414881       -0.1296783793
 H        -4.0263167431        7.4139807545        1.2930621994
 H        -5.0937034583        6.0375420002        0.8122208299
 H        -1.6913923564        9.3548428197       -2.2566793524
 H        -0.6400401767        9.8904072970       -0.9772538289
 H         2.9371592306        6.7849588706       -2.5848233713
 H         2.0686719481        6.5171209095       -1.1143160327
 H        -1.2030947237        8.8527814754       -3.9197985204
 H        -1.8035442214        7.3170662161       -3.9378548317
 H        -0.4134199022        7.7158106321       -4.8365681261
 H         2.1982572900        8.3276394174       -2.5565548932
 H         1.0086714778        9.4318118125       -3.3142628604
 H         1.1615880799        9.2904488189       -1.5487952659
 H         4.0127229075        4.9971658420       -1.9308661262
 H         2.6915863884        4.1050132552       -2.7704414068
 H         0.0389244533        2.1827772644       -0.2212054190
 H         0.1351524675        3.2607484688       -1.5935398666
 H         4.9675331222        1.9004172102       -0.8958498121
 H         4.4438717766        2.8317422988       -2.3154311129
 H         3.8684461388        1.1576982767       -2.0752370103
 H         3.6372265632        2.1498439453        1.0403802878
 H         1.8935002837        1.9670890112        0.9675931329
 H         3.0501355797        0.6778341895        0.4463640867
 H        -1.9361254909        1.9584769492       -1.6007601594
 H        -1.3542540743        1.2909237558       -2.8634871821
 H        -1.1665748252       -1.4370545123       -4.4206891319
 H         0.0282292592       -1.8117143074       -3.0350884647
 H        -3.7546820728       -2.0474116683       -0.6711726654
 H        -3.8057955301       -0.4893605010       -0.1711463993
 H        -2.3802986362       -1.3452302575        0.4009105499
 H        -4.2017917325       -0.6763065464       -2.8582117660
 H        -3.9009968811        0.8537604797       -2.0237717821
 H        -3.0406460715        0.4639360043       -3.5264576734
 H        -0.1802421432       -3.3793211978       -5.2758219722
 H        -1.5321203694       -3.9642221816       -4.2168799826
 H         1.0853955383       -5.9631378838       -1.0670270459
 H         0.6583152259       -7.6291975146       -1.7893756823
 H        -0.2861962087       -7.1949270863       -4.2246019999
 H         0.3431490652       -6.8941309094       -5.7824082430
 H        -0.8957381149       -5.8754810716       -5.0916477677
 H         2.8950776256       -4.6286115000       -4.7322956492
 H         2.4613397418       -5.9057341748       -5.7914198069
 H         1.6694047652       -4.4649535946       -6.0167663783
 H         2.2253581105       -8.6125648685       -0.7467418600
 H         3.5504466921       -7.6135874308       -1.5212479884
 H         2.0183560243       -5.3856573768        2.9451747227
 H         1.0303163374       -4.0863401749        2.6367365529
 H         4.2728795714       -5.5419986697        2.4267116620
 H         4.4262384931       -4.0240949398        1.6767760147
 H         5.4656213363       -5.2066933088        1.0708695838
 H         3.3040747316       -5.1809709280       -1.8029075668
 H         4.0831436864       -3.7994054638       -1.0112866854
 H         4.8610397971       -5.4361601480       -0.9502799910
 H        -0.0397190349       -6.7917907981        2.8704967941
 H         0.6806505189       -6.6669980228        1.1870731641
 H        -3.1141430789       -1.6975391818        3.2394270842
 H        -3.1305507620       -3.2210938337        4.3784851298
 H        -4.5770110457       -4.4452364675        1.6806248105
 H        -3.7201035125       -5.6662107609        0.7910323824
 H        -3.3016364940       -3.9913424143        0.4793761404
 H        -2.3332774312       -6.6240347599        3.3285963762
 H        -1.9483329894       -5.4425132013        4.4021680664
 H        -3.6966461992       -5.5264487678        3.8011445561
 H        -0.7685696215       -1.3272854396        4.3564764074
 H        -2.2118599721       -0.9557366769        5.2257326336
 H         2.2320089451       -4.0456992040        5.8068751487
 H         3.3814764192       -2.7775227266        6.0465025787
 H         2.4359803645       -3.2947314795        7.4945601394
 H        -0.9757327247       -0.8753009379        8.4594171597
 H        -0.7428296743       -0.0445670494        6.9094335404
 H         0.5365354010       -0.3275408833        7.8652868594
 H         0.4037623558       -2.8134236232        8.9218696695
 H        -1.0139651826       -3.7153061553        8.1712247987
 H         0.7560172237       -4.0560886255        7.9062277037
 Na       -0.1732485491       -2.8719252964       -0.5017510440
