155

 C        -6.7665495829        6.7164810691       -3.4356753615
 C        -6.1538526128        6.1882460274       -2.1029796985
 C        -5.7588944944        7.2989371786       -0.9548570323
 C        -4.3100750013        7.9069142035       -1.0746368183
 C        -3.5100576019        8.2132360072        0.2732302409
 C        -6.7078546031        8.5035148179       -1.1753454594
 C        -6.0480715290        6.5761761839        0.3234121323
 O        -5.8990016711        5.0525637416       -1.8682385763
 O        -3.8285299199        8.1752964114       -2.2149445283
 C        -2.0024174652        8.4921766107       -0.0153640636
 C        -1.3390076659        7.2830882393       -0.7887642002
 C        -0.2275924521        7.4892989039       -1.8513287841
 C         0.8658486141        6.2893480679       -1.7976137305
 C         2.3561375372        6.5327947450       -2.0554463827
 O        -1.7103880827        6.1586844491       -0.5315372333
 O         0.5317663301        5.1779534313       -1.4328306528
 C        -0.9412669411        7.3873900156       -3.2972437999
 C         0.4779462828        8.8747585019       -1.6890065245
 C         2.9861030768        5.1225256810       -2.2846823386
 C         3.1530548581        4.3397720625       -0.8665724061
 C         3.0934951424        2.7609032281       -0.8394758456
 C         1.5959461181        2.2328638928       -1.0619025491
 C         0.5103286290        2.4070940069        0.0538045700
 C         3.9282367924        2.2034488624       -1.9623705053
 C         3.6853537604        2.2381635634        0.4043535401
 O         3.3009059071        5.0589281687        0.1357102054
 O         1.2243343119        2.0316615859       -2.2188584245
 C        -0.8155228978        1.7583071532       -0.4423124144
 C        -0.6393695631        0.3529192760       -1.0190878696
 C        -1.4337205994        0.0527706825       -2.3477856643
 C        -1.4200497425       -1.4499547562       -2.6592935208
 C        -1.1427341599       -1.9443565215       -4.1265407854
 O        -0.0065350244       -0.4777035340       -0.4134804771
 O        -1.7588185167       -2.2389581430       -1.7767129655
 C        -2.9504988603        0.3507624937       -1.9733241276
 C        -0.9591226626        0.8191572623       -3.5952030308
 C        -0.5661284311       -3.3916679131       -4.1958140869
 C         0.6829059424       -3.6989552506       -3.3796060698
 C         1.8634586347       -4.3982383119       -4.1182613070
 C         2.9152236308       -4.9336702278       -3.1318087788
 C         2.3460983052       -6.0142792625       -2.0932793961
 C         1.3600532270       -5.6976230822       -4.9433572571
 C         2.6626189479       -3.4243617862       -5.0504524269
 O         0.9067538366       -3.1760382718       -2.2839020824
 O         4.0072799205       -4.4405793992       -2.9412822166
 C         3.4740472350       -6.6747339933       -1.3848956349
 C         3.2725994458       -6.8840188075        0.1525887839
 C         3.5956913557       -5.6779374989        1.1918303981
 C         2.4900365064       -4.5746574352        1.1879745622
 C         1.4955661344       -4.5989915561        2.3186058102
 O         2.9639319461       -7.9710275636        0.5841971182
 O         2.3941189011       -3.8039866746        0.2328645847
 C         3.9017777327       -6.3596985588        2.5238862365
 C         4.9235799637       -5.0173915383        0.5925208061
 C         0.5963035722       -5.9079482839        2.3142708274
 C        -0.3581572475       -5.9233343263        1.0677956485
 C        -1.8344557784       -5.9319534893        1.4659988084
 C        -1.9440776111       -4.4490617244        2.0356016301
 C        -2.9744731139       -4.1325686878        3.0290220976
 C        -2.6863852431       -5.9755511200        0.2047485577
 C        -2.2115409336       -7.0596441741        2.3923507978
 O        -0.0461464218       -5.6801587549       -0.1182942014
 O        -1.2011787491       -3.6089929268        1.5414904758
 C        -2.5358610630       -3.0221168419        3.8595650973
 C        -1.5499312837       -3.4165015206        4.9810267928
 C        -1.7210280394       -2.8908440699        6.3867576334
 C        -0.2876877605       -2.1087334629        6.7209259943
 C         0.9396548769       -2.9588218315        7.0666280334
 O        -0.5624149973       -4.1637372912        4.7157060879
 O        -0.2246600695       -0.8827099908        6.7830327642
 C        -2.9013852005       -1.8728142123        6.6705788131
 C        -1.8483589450       -4.1633161562        7.4423295306
 H        -7.5854683955        7.3465600243       -3.3020149815
 H        -5.9452882676        7.2962523538       -3.8146237731
 H        -7.0708367677        5.8769419011       -4.0118267895
 H        -4.0109851874        9.0445876702        0.8028210211
 H        -3.7560071316        7.3581026177        0.9512229484
 H        -6.6616100568        9.1549963293       -0.2981443202
 H        -7.7123243486        8.0781366249       -1.3065847288
 H        -6.3812487434        9.2281137630       -2.0079777544
 H        -5.4741299275        5.7367652499        0.3869616840
 H        -6.0232696658        7.2274546766        1.2640533329
 H        -7.1159760446        6.3324665063        0.3774421999
 H        -1.9282310042        9.3976698121       -0.5524953586
 H        -1.4016858481        8.5450774689        0.9099289473
 H         2.7588745910        7.1806922552       -2.8495548027
 H         2.8321577538        6.8953731588       -1.1714520167
 H        -2.0276091108        7.3596291844       -3.2195409004
 H        -0.7596874151        6.4086725921       -3.6979237275
 H        -0.7006000993        8.1562993039       -4.0899837717
 H         0.1549130744        9.6332582020       -2.4391750004
 H         0.2002630757        9.3851806324       -0.7978791573
 H         1.5685654401        8.7411514986       -1.8467850735
 H         4.0553943125        5.2598109970       -2.6308806360
 H         2.4837199286        4.5466015399       -2.9824818155
 H         1.0146524762        1.9547089609        0.9420990553
 H         0.3621163471        3.4765762351        0.1099794302
 H         4.8879862698        2.6889221790       -1.9094910807
 H         3.4590954652        2.2835932060       -2.9849850226
 H         4.0544955941        1.1178867887       -1.9017248896
 H         4.7923000927        2.3606555888        0.4550867061
 H         3.3309596505        2.7497000682        1.2879131904
 H         3.5432882236        1.1915422679        0.4365130039
 H        -1.4723216154        1.5004875040        0.4105861281
 H        -1.1047239650        2.4032118509       -1.2876713582
 H        -2.1700526885       -1.9742537845       -4.4667484630
 H        -0.5199153353       -1.2509889838       -4.8216142351
 H        -3.4762413356        0.2279485239       -2.8840064916
 H        -3.0427313302        1.3371010836       -1.7478060055
 H        -3.3092982133       -0.2471017139       -1.0539757517
 H        -1.5703853485        0.5330593595       -4.4790428365
 H        -1.0433571010        1.8596565341       -3.4507840391
 H         0.0638834018        0.4656268519       -3.6837566749
 H        -0.3333731073       -3.6004846564       -5.2111374425
 H        -1.3736490245       -4.1650784335       -3.7721624354
 H         1.6112807640       -5.6750470856       -1.4106826474
 H         1.8446057693       -6.9124327084       -2.6248238635
 H         0.4273630059       -5.9316117703       -4.4149156099
 H         2.0225085170       -6.5594594160       -4.8902959584
 H         1.1056268579       -5.4173736974       -5.9161818054
 H         3.2252769879       -2.7013330608       -4.4076271438
 H         3.2871380458       -3.9851998291       -5.8292507001
 H         1.9230685275       -2.8285703633       -5.5749963614
 H         3.5170654248       -7.7559901506       -1.7926769729
 H         4.4052763890       -6.1650548348       -1.7408557079
 H         1.8224254668       -4.4922045786        3.3548195842
 H         0.9612672284       -3.6591949755        2.2005621532
 H         3.1177133207       -7.0015644105        3.0220939037
 H         4.1913892802       -5.6313620812        3.2403693904
 H         4.7522652115       -6.9855142868        2.3214183425
 H         4.7204506346       -4.2798752961       -0.1780409320
 H         5.3016663764       -4.6038784704        1.4777193082
 H         5.6855091863       -5.7345880349        0.3107901105
 H        -0.0888109359       -5.8954454322        3.1820798667
 H         1.1887513172       -6.7745440280        2.5922419455
 H        -3.9157092062       -3.8491663999        2.5435462349
 H        -3.1943281676       -5.0020312566        3.6328027323
 H        -3.5613770019       -5.4935377622        0.4761037828
 H        -2.9070629299       -6.9960848060       -0.0124273136
 H        -2.2274305225       -5.5407805785       -0.6462465558
 H        -1.5783926841       -7.9695945867        2.3243546436
 H        -1.9845645203       -6.7420151559        3.3892469007
 H        -3.2381468166       -7.3111389647        2.2054379380
 H        -2.1555314886       -2.2989101589        3.1813678790
 H        -3.3589926887       -2.6260083531        4.3719568791
 H         0.7561024150       -3.5837760598        7.9206308707
 H         1.1908903579       -3.6519506983        6.2895176822
 H         1.7949405396       -2.3218350565        7.1976186243
 H        -3.8074568283       -2.3712065229        6.9346159720
 H        -3.0385888440       -1.0733450964        5.8932430463
 H        -2.5974796801       -1.5365948762        7.6335402098
 H        -1.0359523622       -4.0035106228        8.1478774212
 H        -2.8908491477       -4.1558734859        7.9361618562
 H        -1.5892334247       -5.0817240780        6.8260773174
 Na        0.1242516382       -2.7807913403       -0.1337234093
