155

 C        -7.0365696099        6.3949434399       -3.4063770484
 C        -6.2603221952        6.1817543654       -2.0950819728
 C        -5.8472257435        7.3854625338       -1.0735241515
 C        -4.2910580369        7.7113067554       -1.1272367356
 C        -3.5404035630        7.7592430413        0.2227017098
 C        -6.7377622291        8.6378334993       -1.3151946924
 C        -6.2053747295        6.7836805216        0.3028979103
 O        -5.8003629297        5.0569931169       -1.8776397541
 O        -3.8078561870        7.9399631168       -2.1815618279
 C        -2.2101532782        8.2580850678       -0.0630134629
 C        -1.3960147858        7.1154762340       -0.6795351745
 C        -0.1963477475        7.4517932640       -1.6773463746
 C         0.7652041188        6.3225428317       -1.6146528279
 C         2.1530993781        6.4160687561       -2.2251409427
 O        -1.6910769976        5.9809640413       -0.3822652387
 O         0.3313983355        5.1663953750       -1.4005105268
 C        -0.8119439900        7.3403824824       -3.1286063916
 C         0.4540677114        8.8635554697       -1.5330926130
 C         2.8951208066        5.0180666364       -2.1929017144
 C         3.1826561662        4.3772846928       -0.7654304585
 C         3.2287411039        2.8432071436       -0.8968964303
 C         1.7367613390        2.4567522684       -1.0728952594
 C         0.6703382698        2.4967828616        0.1018161768
 C         4.0994687931        2.3475376990       -2.0957960875
 C         3.6959444958        2.2563376534        0.3763013323
 O         3.2496794215        5.0067292076        0.2563276315
 O         1.4793277404        2.0718802123       -2.1661037386
 C        -0.6629631837        1.8368088392       -0.3508458251
 C        -0.5491979102        0.4077545573       -0.8944221665
 C        -1.4043463362        0.0710147382       -2.2027194548
 C        -1.3971997982       -1.4973894999       -2.5146462041
 C        -1.1115638370       -1.8597404632       -4.0289926756
 O         0.0116240708       -0.4171284484       -0.2052669324
 O        -1.9075165675       -2.3409367309       -1.8161234072
 C        -2.8879053419        0.5516804506       -2.0837724577
 C        -0.7823473137        0.9683635917       -3.3213281165
 C        -0.5862151023       -3.2684671597       -4.1419698793
 C         0.8842282419       -3.5470053631       -3.5277415182
 C         2.0070142741       -4.3676995667       -4.2739202015
 C         2.9417920726       -4.9052026999       -3.0892762103
 C         2.5986479398       -6.1044094317       -2.2896567092
 C         1.3450202482       -5.4744639055       -5.1199756318
 C         2.8060599918       -3.3656056755       -5.2718264759
 O         0.9283098764       -3.1626921078       -2.3817744206
 O         3.8700835481       -4.1617741189       -2.7574688025
 C         3.9106562840       -6.5114657765       -1.3424735666
 C         3.5838293325       -6.7949380465        0.0442468719
 C         3.8664666520       -5.6457885291        1.1628705173
 C         2.5556355016       -4.7651673254        1.1961655048
 C         1.5679353537       -4.9223737123        2.3428016830
 O         3.0847886081       -7.8610302781        0.4149193344
 O         2.2982023379       -4.0342073123        0.2434622020
 C         4.0146580632       -6.3976326694        2.5303822105
 C         5.0283080687       -4.6528691117        0.9679829487
 C         0.6361496760       -6.1771671244        2.1086082581
 C        -0.2866188060       -5.9222139954        0.9016943745
 C        -1.8567208500       -5.8661397339        1.2611428109
 C        -2.0343373992       -4.4269940097        1.9209118364
 C        -3.1844986133       -4.1792805207        3.0376093911
 C        -2.7582692574       -6.1455196521        0.0170175175
 C        -2.1353795611       -6.9274606924        2.2966822155
 O         0.1250616608       -5.6753838422       -0.2130700267
 O        -1.2419934901       -3.5436786822        1.6037092954
 C        -2.8574116619       -2.9492338363        3.9922256466
 C        -1.7423251905       -3.3546699238        4.9476727742
 C        -1.9261430354       -2.9520563616        6.5216731794
 C        -0.4999371710       -2.1079383248        6.8478234455
 C         0.7982558041       -2.8944172200        7.1358110830
 O        -0.7760644119       -3.9987897435        4.6407806429
 O        -0.5149343308       -0.8926570161        6.7483406700
 C        -3.0214734013       -1.8795261899        6.6636108939
 C        -1.9918043998       -4.2203403255        7.3989266564
 H        -8.0632976571        6.9227246996       -3.2695438786
 H        -6.3087312597        7.0583188056       -4.0234289696
 H        -7.2319456231        5.4136256459       -3.7588356251
 H        -4.1662625907        8.3092229324        0.9555474497
 H        -3.5173886718        6.7327700535        0.6169580414
 H        -6.4308360018        9.4469334326       -0.6313984933
 H        -7.7524051309        8.3129889825       -1.0199183474
 H        -6.7387589022        9.0234940314       -2.2747620569
 H        -5.6227803229        5.8549640403        0.6393988329
 H        -6.1142133515        7.5285410760        1.0543308058
 H        -7.2595684222        6.6227295941        0.3796231200
 H        -2.1841603756        9.1361361898       -0.7546816548
 H        -1.7187262118        8.5295905805        0.8615318633
 H         2.1057656111        6.7040868409       -3.2730292160
 H         2.8196349263        7.2118514908       -1.7799225954
 H        -1.8899435593        7.6416998432       -3.2285970036
 H        -0.7852142447        6.3393103631       -3.6031552950
 H        -0.2402478603        8.0214890046       -3.7042747284
 H        -0.0981652451        9.6310436880       -2.0819305116
 H         0.4253705203        9.2760013518       -0.4684333446
 H         1.4635536488        8.7634178637       -1.9002870853
 H         3.8408636845        5.0390902877       -2.6937339940
 H         2.2001196858        4.2701128538       -2.7725914598
 H         1.0128104105        2.0569328056        1.0167771444
 H         0.4193151648        3.5881359252        0.1888103303
 H         5.1724867489        2.5879840553       -2.0974062349
 H         3.6250984612        2.5280829147       -2.9963449328
 H         4.0710422489        1.2263459869       -2.0084632932
 H         4.7057022744        2.0662504841        0.4561265236
 H         3.4789363378        2.9404685655        1.1638235119
 H         3.2206819250        1.2825259485        0.4652850297
 H        -1.1182915313        1.7239780344        0.6114452863
 H        -1.1692316585        2.4087614056       -1.0851340063
 H        -2.0871672773       -1.8434610210       -4.6023296031
 H        -0.4279623287       -1.1652698685       -4.3836721219
 H        -3.4453367011        0.1679180938       -2.9763550778
 H        -2.8841761406        1.6844375720       -2.0997725639
 H        -3.3254422924        0.2340179786       -1.1874794157
 H        -1.4641317439        0.8556938128       -4.1569832442
 H        -0.9248730893        2.0099068828       -2.9672144830
 H         0.2029262710        0.6946644528       -3.6571079023
 H        -0.5658574458       -3.5745965218       -5.2058021013
 H        -1.3086781535       -3.7497369140       -3.6122848469
 H         1.8042873913       -5.7820909225       -1.5602346605
 H         2.2209826095       -6.8873008965       -2.8482041821
 H         0.8032067759       -6.1453697917       -4.4931004969
 H         2.1006240982       -6.0397457963       -5.7214451737
 H         0.5937268213       -4.9940723654       -5.8093965156
 H         3.2969703618       -2.6369762844       -4.6807992579
 H         3.5063434861       -3.8873031550       -5.8579182456
 H         2.1106691161       -2.8454045358       -5.9214719602
 H         4.4318289729       -7.3434397329       -1.6750053103
 H         4.5408352006       -5.6431262780       -1.4383732249
 H         2.0037326496       -4.8340735528        3.3562166848
 H         0.7786583133       -4.1425203581        2.4316341006
 H         3.3330261832       -7.1690498010        2.6861845863
 H         3.9319188458       -5.7052479902        3.4289451645
 H         4.9699370992       -6.9121026489        2.4988403477
 H         4.9353094817       -4.1830358844       -0.0120522700
 H         5.1056867755       -3.9648745232        1.8961432768
 H         5.8970389086       -5.3102612580        0.9074414411
 H         0.1170136451       -6.4708174025        2.9977631443
 H         1.0720141518       -7.0948789264        1.7735680758
 H        -4.0796774767       -3.8616673328        2.4815242559
 H        -3.3649957462       -5.0310162723        3.7192860157
 H        -3.8097784155       -6.3658948290        0.3472162403
 H        -2.2856480539       -7.0073470821       -0.4782219233
 H        -2.7352606162       -5.2974507951       -0.6586152858
 H        -1.6561442758       -7.8588792057        2.0025251982
 H        -1.7408812834       -6.7214997710        3.3010775351
 H        -3.1875499836       -7.1536668322        2.1872671354
 H        -2.4075435539       -2.1044312443        3.3995721787
 H        -3.7216413715       -2.5777218861        4.6059542023
 H         0.5241245908       -3.9263052887        7.4378111868
 H         1.4053658631       -2.9982400627        6.1937002615
 H         1.5023752502       -2.4175631227        7.8331034828
 H        -4.0206351447       -2.1539135700        6.2296558012
 H        -2.6394864887       -1.0683934883        6.1047517804
 H        -3.2110635499       -1.7913547271        7.7390413133
 H        -1.8890532965       -3.8401116070        8.4344558756
 H        -3.0044140062       -4.5184755232        7.3323289455
 H        -1.3667880835       -4.9692674855        7.0402605007
 Na        0.1964451845       -2.9609815100       -0.2680470368
