155

 C        -7.3390650759        6.0419347591       -3.3219758745
 C        -6.4643482417        6.0624186608       -2.0672396596
 C        -6.2007852299        7.3697921931       -1.1343193318
 C        -4.6307547725        7.5214801468       -1.0788378966
 C        -3.7816754047        7.6908702752        0.2444944759
 C        -7.0210032188        8.6319637545       -1.6969763120
 C        -6.8789145088        7.0591034837        0.2074934386
 O        -5.8712944588        5.0476916801       -1.7906596825
 O        -4.0633708516        7.5700633403       -2.1481145896
 C        -2.3745899838        8.0246938943       -0.1927251452
 C        -1.4370543706        6.7641224391       -0.4739287879
 C        -0.1952547283        7.1895997384       -1.4531640710
 C         0.8455565828        6.0752676456       -1.6158579799
 C         2.2163056895        6.4068016565       -2.0857425474
 O        -1.6763624254        5.6815918149       -0.0652715543
 O         0.6005696294        4.8680967157       -1.4288552980
 C        -0.8731759449        7.4041329578       -2.8043913693
 C         0.5671656269        8.4371026166       -1.0308469259
 C         3.1405220906        5.1818573704       -2.1767841523
 C         3.2861317430        4.4394004548       -0.8463540044
 C         3.5601250921        2.9009295219       -0.7541267341
 C         2.1151406526        2.2853800057       -1.0883550102
 C         1.2085698509        2.0096917526        0.1596877581
 C         4.5812978782        2.3946550112       -1.8496590921
 C         4.0349945228        2.5967689134        0.7227706925
 O         3.1772483146        5.1248307226        0.1850280474
 O         1.7168396981        1.9543890926       -2.1906895623
 C        -0.2225194830        1.7689343839       -0.3672101025
 C        -0.5060628829        0.3264520850       -0.8221320226
 C        -1.4395366984        0.1369040705       -2.1289895977
 C        -1.3143451974       -1.3593198473       -2.5707260387
 C        -0.8081215352       -1.8267012922       -4.0419798844
 O        -0.0625104923       -0.6240934778       -0.2295257074
 O        -1.6176673099       -2.2097191454       -1.7821307394
 C        -2.9292606501        0.3278766589       -1.6510331153
 C        -1.2362485778        1.1492672513       -3.2850236251
 C        -0.4225349991       -3.3339335280       -3.9330307099
 C         1.0141488548       -3.4827672637       -3.3721698413
 C         2.1227584401       -4.2465585382       -4.2397716477
 C         3.3114897714       -4.5660424811       -3.2564630964
 C         3.3332531983       -6.0148359455       -2.6563773465
 C         1.6104288596       -5.6109486784       -4.7793083793
 C         2.4752082791       -3.2409195236       -5.3760805008
 O         1.3270479188       -2.9763583127       -2.2850335487
 O         4.1078507397       -3.7115497425       -2.8805991778
 C         4.4221350944       -5.8901028406       -1.4967053780
 C         3.8744518963       -6.4047675768       -0.1893438043
 C         4.0020183738       -5.5060987898        1.0909046980
 C         2.5817808228       -4.8838170120        1.2964617952
 C         1.6626349820       -5.4709021027        2.3309946849
 O         3.3291155921       -7.4847321678        0.0308154275
 O         2.3043512991       -3.8939722586        0.5735810713
 C         4.6027823709       -6.4495007737        2.2652415352
 C         5.0942994641       -4.3488653928        0.8552304855
 C         0.5988996309       -6.4830566661        1.7682006025
 C        -0.4283787228       -5.8893165227        0.7932862187
 C        -1.9236207601       -5.7463813728        1.2156657410
 C        -2.1048399918       -4.2586822509        1.9258122993
 C        -3.2849219111       -4.1920122983        2.8974463467
 C        -2.8730506702       -5.6552973519       -0.1007454659
 C        -2.3964910759       -6.9379883217        2.0730825502
 O         0.0487239969       -5.4760664920       -0.2666729542
 O        -1.5974503090       -3.2649138778        1.4235526625
 C        -3.2729436843       -3.0665394810        3.9105493787
 C        -2.1444387989       -3.3837219530        4.8952515310
 C        -2.1951167880       -2.8903209640        6.4180738335
 C        -0.8934222991       -2.1848489668        6.7794157303
 C         0.4401080814       -2.8874912157        6.9720571219
 O        -1.1415322533       -4.0396071640        4.5978050498
 O        -0.9986029962       -0.9310779764        6.7854850554
 C        -3.4868894308       -1.9720307657        6.6183196458
 C        -2.2885791173       -4.1937716077        7.3035633922
 H        -8.4056082653        6.2840184777       -2.9834570591
 H        -6.8724350396        6.8481495063       -4.0629869484
 H        -7.3087081203        5.0765082635       -3.7944139447
 H        -4.2538475351        8.4981578408        0.8780143731
 H        -3.8944941339        6.6925053186        0.7129587643
 H        -7.3059489528        9.4172723954       -0.9747813783
 H        -8.0070941081        8.2627997366       -2.0786726075
 H        -6.5928776665        8.9861659652       -2.5944880359
 H        -6.5182089847        6.0616929934        0.4947477187
 H        -6.4983004783        7.6185816433        1.0714050106
 H        -7.9400835051        6.9072518396        0.1610945264
 H        -2.3305946934        8.7467379426       -1.0144484784
 H        -1.9429606756        8.5450612335        0.6223720670
 H         2.2142194929        7.0074407196       -2.9786208549
 H         2.7021272549        7.0751480586       -1.3241737047
 H        -0.8519759330        8.5089219197       -3.0741055527
 H        -1.9265486355        7.1641968201       -2.6989190099
 H        -0.4629547068        6.8829880594       -3.6481410568
 H        -0.2557168661        9.1133073342       -0.6940802900
 H         1.3814480290        8.1512252884       -0.3485934071
 H         1.0807465363        8.9064718475       -1.8615399133
 H         4.0940393376        5.5548968231       -2.4367373784
 H         2.6594715978        4.5101821888       -2.9460694292
 H         1.6541054340        1.0881771805        0.5003478344
 H         1.2749635222        2.8589719029        0.9094389163
 H         5.5546198920        2.8802034789       -1.7546346825
 H         4.2215509502        2.6193025901       -2.7962285909
 H         4.8895384063        1.3306717062       -1.6368776207
 H         4.8170442815        3.2959770379        0.9010341044
 H         3.2580564795        2.8220784833        1.4415372192
 H         4.4582357934        1.5940817631        0.8369423380
 H        -0.9274110522        1.8841973705        0.4600334638
 H        -0.4612396415        2.5777665064       -1.0681610335
 H        -1.6680397420       -1.8159723052       -4.7951335239
 H         0.0774712215       -1.4514451418       -4.4707305475
 H        -3.6936579051        0.2678084305       -2.4316579538
 H        -2.9372313012        1.2094387806       -1.1133617665
 H        -3.1647259561       -0.5422779287       -0.9890133356
 H        -1.8045630945        0.8605335337       -4.1621101726
 H        -1.4092572097        2.1889665940       -2.9521082861
 H        -0.1995245153        1.0568351743       -3.5808672763
 H        -0.5333663197       -3.5981828932       -4.9851519746
 H        -1.0166249394       -3.9230082716       -3.3375708045
 H         2.3442406580       -6.3174454833       -2.2652969720
 H         3.7357130058       -6.7425928502       -3.2836917298
 H         1.0930327221       -6.1984618560       -4.0982623104
 H         2.5059956202       -6.1882323561       -5.1149431937
 H         0.9854672444       -5.4957953928       -5.6753364267
 H         2.8354169553       -2.2461374401       -5.0362066637
 H         3.2737102597       -3.7089971439       -6.0130142485
 H         1.5929556397       -3.1070618369       -5.9705680305
 H         5.2217406685       -6.4936856837       -1.8825900614
 H         4.7948719364       -4.8392429997       -1.3717262297
 H         2.1749741637       -6.0424830398        3.1430070834
 H         1.1012589769       -4.5564547186        2.7125194862
 H         4.0058548995       -7.3135466014        2.4051895177
 H         4.4296017099       -5.7996936678        3.1890458045
 H         5.6133346519       -6.7662884592        2.2211587773
 H         4.6063674105       -3.4887006528        0.4427915811
 H         5.4407447290       -3.9722579640        1.8827468245
 H         5.8726882463       -4.6335074383        0.2118987509
 H         0.0522713636       -6.9165295920        2.5669057011
 H         1.2359125254       -7.1820456941        1.3573984624
 H        -4.1781669002       -3.9908375599        2.3531946714
 H        -3.2566411103       -5.0613024784        3.4791466451
 H        -3.7802279756       -5.1095216460        0.0295178350
 H        -3.0620018608       -6.6358874745       -0.4844360754
 H        -2.2722246450       -5.1323497130       -0.7430298047
 H        -2.0090818804       -7.8930697119        1.6128890818
 H        -2.1270106990       -6.8092312553        3.1449886323
 H        -3.4577985103       -6.9922216939        2.0331544165
 H        -3.0215031880       -2.1358524930        3.4041910489
 H        -4.1918672243       -2.9657713846        4.4602391389
 H         0.3684569404       -3.8461525703        6.4736779958
 H         1.2585098423       -2.2733529931        6.6058880238
 H         0.7050739427       -3.1335674619        7.9819796607
 H        -4.4107499613       -2.6334613825        6.5839492859
 H        -3.5343072907       -1.2975346467        5.8117900503
 H        -3.3301335700       -1.4084832519        7.5415919689
 H        -2.2852493201       -3.9362438793        8.3947893189
 H        -3.2677424866       -4.6896656399        7.1809000650
 H        -1.6251747179       -4.8680802520        6.8512376545
 Na        0.1382280549       -3.0971553999       -0.2379816656
