155

 C        -7.5166340991        5.9893405326       -3.2682884174
 C        -6.5995909688        5.9256037685       -1.9855291714
 C        -6.2717510449        7.2777841330       -1.2327005300
 C        -4.7485301624        7.4607288336       -1.3319975932
 C        -3.9610679372        7.4145093128        0.0459658478
 C        -6.9594995138        8.5377621301       -1.8981288451
 C        -6.8508421732        7.0246177028        0.2323034456
 O        -6.1036525206        4.8885635030       -1.5516338859
 O        -4.2029047447        7.6220972868       -2.3831091303
 C        -2.5265708242        7.9001831834        0.0229838307
 C        -1.4272148370        6.7528916135       -0.3807460977
 C        -0.1843788766        7.0834354161       -1.2616493823
 C         0.7936834549        5.9042140126       -1.5987878802
 C         2.1487128911        6.2481776695       -2.1743669796
 O        -1.5693020540        5.6177700932        0.0893541388
 O         0.3753209612        4.7949201995       -1.4390794312
 C        -0.7701824349        7.3442056050       -2.7052856627
 C         0.3950351722        8.4394480318       -0.6305269068
 C         3.1118105660        4.9531892914       -2.1363484282
 C         3.4112063487        4.4743876396       -0.6871096242
 C         3.7800269837        2.9315947564       -0.6282720713
 C         2.3645571207        2.2565358004       -1.0083513026
 C         1.2631706238        1.9081233116        0.1142769905
 C         4.7482657125        2.6763135379       -1.7733152100
 C         4.3433319065        2.5628470224        0.7625010097
 O         3.2553831263        5.1671500112        0.2303019678
 O         2.2254361952        1.8815035757       -2.1322358562
 C        -0.1430153146        1.6690904304       -0.3911581312
 C        -0.4549499419        0.2271897545       -0.8243050165
 C        -1.4166826843        0.0113086957       -2.0165026483
 C        -1.3292477407       -1.4885129777       -2.5569824717
 C        -0.7702597366       -1.7077418612       -3.8781136345
 O         0.0999298728       -0.7415633316       -0.3198517211
 O        -1.8173620844       -2.4095236222       -1.8718563175
 C        -2.8340289636        0.0563853025       -1.3699311808
 C        -1.3225086437        1.0619759010       -3.1309309353
 C        -0.2197508701       -3.2186095678       -3.9646541058
 C         1.1140573560       -3.3880495603       -3.2069358908
 C         2.1293629342       -4.1546763963       -4.1894003758
 C         3.6084284503       -4.3711598600       -3.4141840694
 C         3.8564379703       -5.7150241237       -2.8016289734
 C         1.4293981038       -5.4635839747       -4.5913833935
 C         2.5593445039       -3.3735114131       -5.4437088407
 O         1.4322189786       -3.2299517158       -2.0525934666
 O         4.2998630344       -3.3681042984       -3.2958313741
 C         4.8350582906       -5.8768414162       -1.6282356665
 C         4.0373925045       -6.2265974158       -0.3443013415
 C         4.0586087998       -5.3909387373        1.0212191034
 C         2.5846824684       -4.8313722135        1.3646230583
 C         1.6375193192       -5.5665457470        2.3950297389
 O         3.3800472476       -7.2400195301       -0.3079425810
 O         2.2023489967       -3.7644226208        0.9743126645
 C         4.5854801256       -6.3328304349        2.1674071091
 C         4.9078528467       -4.0907377209        0.9619868458
 C         0.4710681293       -6.4149256587        1.6243500397
 C        -0.4843431248       -5.6558024050        0.6411562105
 C        -2.0349986592       -5.6042920440        1.0213011815
 C        -2.2571354490       -4.2602473028        1.8380974032
 C        -3.5611065733       -4.1454558933        2.7039277976
 C        -2.7858413704       -5.6125899842       -0.3094179210
 C        -2.4484434440       -6.8206339825        1.9332023760
 O        -0.0358429350       -5.2926343308       -0.4227688339
 O        -1.4472160798       -3.3789877294        1.6666408533
 C        -3.2866539964       -3.0549416833        3.8159165751
 C        -2.2055635945       -3.6063478365        4.9299429611
 C        -2.3587159637       -2.9873575118        6.3618916755
 C        -1.1357496461       -2.0627172749        6.6590388576
 C         0.1835134664       -2.8705185813        6.7770899622
 O        -1.2267393495       -4.1940272389        4.5321491721
 O        -1.2026849152       -0.8736301741        6.8226375363
 C        -3.6686382588       -2.0770322138        6.5613851321
 C        -2.4951429678       -4.1036613283        7.3366769958
 H        -8.5201359103        6.2048787293       -2.9842316078
 H        -7.0798412718        6.6798193349       -3.9175220650
 H        -7.4332168236        5.0597731692       -3.7778620220
 H        -4.6045116338        8.0842786538        0.5725781497
 H        -4.0134442257        6.3957927752        0.3923674972
 H        -6.7142594730        9.3868063842       -1.2811005419
 H        -8.0088317138        8.5961740554       -1.9667099172
 H        -6.5873257274        8.7058342800       -2.9152740111
 H        -6.4323253304        6.1492148987        0.7803079184
 H        -6.6334287359        7.7850145890        0.9070840479
 H        -7.8971793371        6.7870189761        0.1395003530
 H        -2.3097199730        8.8203474141       -0.5236368608
 H        -2.2794536367        8.1431686657        1.1087565491
 H         1.9438766041        6.5568317006       -3.2414489624
 H         2.6829255130        7.0892892949       -1.7891058530
 H        -0.7755068018        8.3978568126       -2.8699460453
 H        -1.7815534360        6.8859275975       -2.8463745204
 H        -0.1189266850        6.9209371367       -3.5048346524
 H        -0.0861186839        9.1981957101       -1.1721528372
 H         0.2050720285        8.3639340569        0.4220597123
 H         1.4774200310        8.5567493980       -0.6496060191
 H         4.0685269662        5.3537497304       -2.6197809109
 H         2.6218894121        4.1775507602       -2.6661020376
 H         1.6839316280        0.9633690522        0.5498190569
 H         1.3315032868        2.6850998136        0.8032469721
 H         5.6139627464        3.3493614307       -1.7554726959
 H         4.2236958931        2.9596042250       -2.7111255426
 H         5.0904497956        1.7030074769       -1.7969153777
 H         5.3935812390        2.8558499728        0.8183521594
 H         3.6619891826        3.0750657297        1.4298574822
 H         4.1860821090        1.5280102037        1.0207088133
 H        -0.9364619552        2.0244014425        0.3052840916
 H        -0.3359859395        2.4325631383       -1.1816088735
 H        -1.5199252062       -1.5898212933       -4.5838260152
 H         0.0826816695       -1.0006108517       -4.0097740216
 H        -3.5464477337       -0.3275469802       -2.0948331388
 H        -3.1219118172        1.1649964756       -1.0709112671
 H        -2.9091720741       -0.6106478483       -0.5733590750
 H        -1.7532449363        0.6786563877       -4.0585665026
 H        -1.8097109980        2.0014116415       -2.8264683011
 H        -0.2833549155        1.3841973779       -3.3394568421
 H        -0.2385363173       -3.4215044467       -5.0523008590
 H        -1.0627198091       -3.8605749021       -3.4919022498
 H         2.9048378750       -5.9461232752       -2.3338668868
 H         3.9599929855       -6.4479907174       -3.6753863665
 H         0.9223018705       -5.9010745693       -3.6522137762
 H         1.9355658428       -6.2446414063       -5.1062269395
 H         0.5977859804       -5.2192349365       -5.2799581349
 H         3.2091505592       -2.6335345362       -5.0892217278
 H         2.9863023496       -3.8892471779       -6.2222795976
 H         1.6734034670       -2.8373481372       -5.8338384727
 H         5.6415296483       -6.6020762785       -1.7678598253
 H         5.2518227163       -4.9333800459       -1.4485345189
 H         2.1356915853       -6.3229034929        2.9643811196
 H         1.1628724356       -4.8112389875        2.9394149541
 H         4.1114472668       -7.3406751881        2.1246324940
 H         4.6931735770       -5.9629945304        3.1347268289
 H         5.6590293665       -6.5184517289        1.8534581898
 H         4.6444603606       -3.3007075118        0.1994375336
 H         4.7884583644       -3.6128371410        1.9097292327
 H         6.0285327268       -4.4048510655        0.8876577876
 H        -0.1296251616       -7.0011333045        2.3671105117
 H         1.1360553367       -7.0897329308        0.9319532324
 H        -4.3311799975       -3.7120595003        2.0281897401
 H        -3.7981438252       -5.1090826272        3.2738098952
 H        -3.7884123151       -5.1564560978       -0.1774375987
 H        -2.9435206215       -6.6748969173       -0.5113672553
 H        -2.2280436768       -5.0830472861       -1.1594594550
 H        -1.9782757933       -7.6225894881        1.4833638517
 H        -2.1177679842       -6.6238729279        2.9353510487
 H        -3.5505419285       -7.0223782380        2.1220982271
 H        -2.8061534357       -2.1932395117        3.2682209958
 H        -4.1754943676       -2.7147223521        4.4025201431
 H         0.5824913879       -3.1986909901        5.8016240277
 H         0.9358941114       -2.3085103490        7.3590441416
 H         0.0523999777       -3.8827308394        7.2492984000
 H        -4.4759255473       -2.6645084038        6.2511701050
 H        -3.5786879963       -1.0829908006        5.9951135416
 H        -3.6613392499       -1.7487264146        7.6110929227
 H        -2.0284203032       -3.7974966152        8.2539840844
 H        -3.5000648444       -4.3472962573        7.5670549376
 H        -2.0444877658       -5.0429899863        6.9212435205
 Na        0.1383592975       -2.8875171528       -0.1010746593
