155

 C        -7.1634073668        4.9516026382       -3.1181030828
 C        -6.8671631928        5.3864925312       -1.6782608351
 C        -6.6555700035        6.9445787673       -1.4641084771
 C        -5.0181834761        7.1595836482       -1.4538144514
 C        -4.3340626870        6.4056001839       -0.2590380828
 C        -7.2715735166        7.8980577922       -2.5267807084
 C        -7.2212310333        7.2690119344       -0.0995915737
 O        -6.9540056111        4.5711514438       -0.7500004157
 O        -4.4803440972        7.7388985130       -2.3617866090
 C        -2.9527862960        6.9528182386        0.1079808892
 C        -1.8474572827        6.0112881311       -0.3070874355
 C        -0.5087573152        6.6997119815       -0.9058537362
 C         0.4729891965        5.5934706173       -1.3666219459
 C         1.9440658021        6.1021412726       -1.2561604222
 O        -2.0126171179        4.7923856505       -0.0924723527
 O         0.2031770756        4.5562566102       -1.9001378127
 C        -0.7504718548        7.3937211571       -2.2974836004
 C        -0.0560295262        7.6417572067        0.3164171246
 C         3.0700411686        5.0412128447       -1.5937582872
 C         3.7501272888        4.4504442495       -0.3586963498
 C         4.2000049365        3.0157237895       -0.5081829954
 C         3.0126510681        1.9889614570       -0.7084843825
 C         1.7265607727        2.1800049919        0.1100540489
 C         5.2636208455        2.9840848232       -1.6906420220
 C         5.0724754748        2.7497554517        0.7634522019
 O         4.0239570766        5.2018553469        0.5221209776
 O         3.1403228315        0.9660690216       -1.3011632267
 C         0.4687711501        1.7073587714       -0.6037123152
 C         0.1579119120        0.2645951090       -0.5157974860
 C        -1.3431617329       -0.1649998838       -1.1160029232
 C        -1.1446282475       -1.4954169016       -1.9744661353
 C        -0.0628222624       -1.5090374964       -3.1565116863
 O         1.0475471600       -0.5380397662       -0.1399896897
 O        -1.9070675496       -2.4195642251       -1.7866450413
 C        -2.1121850592       -0.3425077472        0.2040384730
 C        -2.0167138972        0.9329426837       -1.9418463511
 C         0.3791619071       -2.8840768570       -3.7393753608
 C         1.7106088646       -3.3751806610       -3.1654962563
 C         2.6858855204       -3.9973195036       -4.1797104561
 C         4.2603278566       -3.6978043208       -3.7531777418
 C         5.0808504977       -4.5692229543       -2.8603516447
 C         2.3842753868       -5.4584562253       -4.1776818788
 C         2.5748958405       -3.5188464964       -5.6866574750
 O         2.0309094525       -3.2838350253       -1.9873918792
 O         4.7747853841       -2.6638986610       -4.2276574311
 C         4.8020929728       -4.1859459118       -1.4404395645
 C         3.8221689888       -4.9291943000       -0.6210365928
 C         3.7316323930       -4.6741303212        1.0058458104
 C         2.2663522574       -4.4220398958        1.6421917799
 C         1.2377851260       -5.5366246216        1.9962455272
 O         3.1067954163       -5.7554673538       -1.1089742100
 O         1.9549658841       -3.2413451287        1.6998721163
 C         4.1897016992       -6.0985230635        1.6805179408
 C         4.7350787290       -3.6050329531        1.4535538897
 C         0.6532811738       -6.2228276348        0.7203817799
 C        -0.4915486167       -5.5717950034        0.0275020011
 C        -1.9050762746       -5.4651086961        0.6892628462
 C        -2.0991382694       -4.0859750141        1.4220344098
 C        -3.3788556926       -3.7699910402        2.1068018169
 C        -2.9148744772       -5.5588819189       -0.4852017385
 C        -2.2366208734       -6.7716248308        1.5667737847
 O        -0.2948814111       -4.9631330828       -1.0392704249
 O        -1.2605066038       -3.2181512906        1.2760457108
 C        -3.0893926273       -3.0810783971        3.3758619784
 C        -3.0646179816       -3.9400649531        4.6203112178
 C        -3.1627951550       -3.2625348735        5.9568665782
 C        -1.9636077433       -2.1669841747        5.9009883760
 C        -0.5733136080       -2.7886254857        5.7859304487
 O        -2.9086395807       -5.2116129428        4.4483116223
 O        -2.1787575706       -0.9752478888        6.0467984206
 C        -4.5658955126       -2.7464759525        6.1460081828
 C        -2.8669940466       -4.2741489021        7.1861876649
 H        -8.1701899270        5.2515164026       -3.4075435482
 H        -6.4773931665        5.4145308143       -3.8078660786
 H        -7.1569390908        3.9740742399       -3.0926206606
 H        -5.0757814879        6.5544986173        0.5112315136
 H        -4.3997800892        5.3563460513       -0.5528674833
 H        -7.3647101955        8.8993990511       -2.2515585371
 H        -8.2450099311        7.5826456497       -2.7921903324
 H        -6.7189608136        7.8947058319       -3.5117288689
 H        -7.2933026526        6.3702012251        0.4872841937
 H        -6.6730026551        8.0555207231        0.4608470604
 H        -8.2032824820        7.7297148117       -0.1026938014
 H        -2.6865179876        7.9763194761       -0.2705656935
 H        -2.9821490099        7.0277478927        1.2230383821
 H         1.9719331249        6.8454388118       -2.0228144639
 H         2.1937968891        6.6896741687       -0.3081576699
 H        -0.5538662798        8.4561479883       -2.3187822089
 H        -1.7532992941        7.1840662628       -2.5015433000
 H        -0.0814272685        6.8250158452       -2.9450772581
 H         0.8806644090        7.3202757840        0.7619493145
 H         0.0467329764        8.6966313905        0.1170261684
 H        -0.8724109962        7.5958422898        1.0850630043
 H         3.7765333371        5.4233700441       -2.2984906197
 H         2.5668758307        4.2778061380       -2.2891561945
 H         1.7354319100        1.5251425611        0.9416066693
 H         1.7745847537        3.2178955723        0.5130870556
 H         6.0164931832        3.7129070347       -1.6192565215
 H         4.7254952967        3.0759941684       -2.6752956729
 H         5.7554444995        2.0655985306       -1.6317041465
 H         6.0349771286        3.2459908774        0.6941901330
 H         4.6335224998        3.2279765991        1.5943906999
 H         5.2321274908        1.7406018304        0.8367164515
 H        -0.4117161292        2.3516266403       -0.2585745661
 H         0.2943776877        1.9938159118       -1.6688076556
 H        -0.3218162030       -0.8387067793       -3.9892017963
 H         0.7764845423       -0.9649020333       -2.7462948502
 H        -3.0899602329       -0.6619453178       -0.0509789965
 H        -2.2193403940        0.7313243409        0.7172586117
 H        -1.6746038108       -0.9646084873        0.9537102070
 H        -2.9314497513        0.5493282340       -2.4331671229
 H        -2.4003859503        1.7266014597       -1.3855095596
 H        -1.5305766393        1.3072953899       -2.8162768624
 H         0.3739986939       -2.7223091339       -4.7996384410
 H        -0.5776505678       -3.5542634687       -3.5591658358
 H         4.8884949566       -5.6189929960       -2.9471943231
 H         6.1339018891       -4.5642194840       -3.3044970873
 H         2.3201600453       -5.9085025081       -3.1306637432
 H         3.1873253841       -6.0498381950       -4.6240480241
 H         1.4840558457       -5.7183033954       -4.6867728819
 H         2.5613281553       -2.4699047465       -5.8133090248
 H         3.4192416852       -3.9023240390       -6.2209236699
 H         1.6845009177       -3.9085538008       -6.1426204633
 H         5.6988807619       -4.2139435003       -0.8511898112
 H         4.4333289107       -3.1454111442       -1.3640496990
 H         1.5867213393       -6.2362807479        2.6962744291
 H         0.4540781493       -5.1006365578        2.5773985496
 H         3.5963559580       -7.0410857221        1.4977006727
 H         3.9875957866       -5.8916683118        2.7074789840
 H         5.2251442378       -6.2804769883        1.5493226059
 H         4.6911140751       -2.6071931862        0.9197677872
 H         4.7493989177       -3.3990278756        2.4774020419
 H         5.8036688883       -3.8370697636        1.1274583413
 H         0.2715096572       -7.2874181436        0.9453882989
 H         1.4168779388       -6.5160014327       -0.0796631754
 H        -4.0667644650       -3.2298498814        1.4012655087
 H        -4.0981451497       -4.5473524014        2.2650595941
 H        -3.9028740349       -5.5208576463       -0.1211867351
 H        -2.7545483064       -6.5551359524       -0.8662509612
 H        -2.7858032248       -4.8399393616       -1.3212576581
 H        -2.2330286888       -7.7307884355        1.0267085673
 H        -1.5563894764       -6.9195060541        2.3730510531
 H        -3.2673804325       -6.6413224510        1.8752215564
 H        -2.1000623159       -2.5201688779        3.3436080320
 H        -3.7384499374       -2.2207445299        3.6287922671
 H         0.0969425144       -2.6537221176        6.6487978529
 H        -0.6980606640       -3.8542350628        5.5871611816
 H        -0.0914444884       -2.4944345523        4.8258574110
 H        -5.2481968662       -3.5182608416        6.4973299444
 H        -5.0599544237       -2.2930845480        5.1979829793
 H        -4.5228077673       -1.9972764307        6.9301690163
 H        -2.0615664163       -4.0738277839        7.8033652323
 H        -3.6500898288       -4.5663472712        7.8821704824
 H        -2.5406927592       -5.2408802590        6.7164719361
 Na        0.6141844887       -2.8097497427       -0.0747265527
