155

 C        -6.8946267831        4.2645977801       -2.8973717886
 C        -7.1700171046        5.0669331972       -1.5771415758
 C        -6.6639913056        6.5772086873       -1.5669252421
 C        -5.1378449271        6.6989098314       -1.1671771472
 C        -4.5427942868        5.7847875066       -0.1376851382
 C        -6.9117261425        7.3011761520       -2.8417437890
 C        -7.4940132587        7.1653975959       -0.4612146598
 O        -7.5965816687        4.5335718081       -0.5776888798
 O        -4.3636127310        7.5265766200       -1.6810467755
 C        -3.1384060696        6.1865787768        0.1903277840
 C        -2.0424467816        5.5926803306       -0.6539037067
 C        -0.6828469775        6.4267295715       -0.7454275664
 C         0.5827504493        5.5072133574       -1.0489309992
 C         2.0436811745        6.1312549920       -0.8762024392
 O        -2.1395019682        4.4978247701       -1.2008801703
 O         0.3384975141        4.5574349133       -1.7995218697
 C        -0.8215338974        7.4120324416       -1.9343505650
 C        -0.5589583642        7.3247673950        0.4674983965
 C         3.0817958018        5.1528366351       -1.4499150067
 C         3.7001471557        4.3859335087       -0.2429324988
 C         4.3382466923        2.9756001567       -0.5586437633
 C         3.1709045104        1.9580550180       -0.6421006667
 C         2.1936647231        2.0657895365        0.5538827375
 C         5.1772661783        2.9708285583       -1.8598624185
 C         5.1955580540        2.5501372366        0.6101305041
 O         3.6584794385        4.8748948175        0.8475545589
 O         3.1170262897        1.1291809871       -1.5038039613
 C         0.7614674377        2.0123322287       -0.0340460023
 C         0.3437733101        0.5398184412       -0.3548320625
 C        -1.0066423462        0.2168660387       -1.0725772288
 C        -0.8479445397       -1.0709335422       -1.8016128396
 C        -0.0673680968       -0.9922025106       -3.1602604197
 O         1.0001460500       -0.3857911219        0.1297334529
 O        -1.3842885125       -2.0922572469       -1.3858131658
 C        -2.1131569416       -0.0281250616        0.0544059322
 C        -1.3640178153        1.3338263701       -2.0546388391
 C         0.3544155908       -2.3904473120       -3.5704823751
 C         1.7073902366       -2.8216637748       -3.1115078729
 C         2.7121743862       -3.4753117474       -4.0990994760
 C         4.2451830946       -3.0736241075       -3.5931953274
 C         5.0337628296       -3.6829300676       -2.4249580233
 C         2.4691059399       -4.9997100476       -3.8891882492
 C         2.5189534357       -3.1537865610       -5.6476718096
 O         1.9922908600       -2.6424769306       -1.9034169164
 O         4.7730612640       -2.2192092329       -4.2614216362
 C         4.6479420860       -3.4962036871       -1.0076578989
 C         4.0411644894       -4.7280853201       -0.3755095337
 C         3.9968647882       -4.9564966788        1.1652894386
 C         2.5513714230       -4.5977203573        1.4732443181
 C         1.4877041159       -5.6354775263        1.8872006892
 O         3.6168837457       -5.6564154308       -0.9960006960
 O         2.1945949360       -3.4431896805        1.3358928561
 C         4.3582048094       -6.4229589269        1.6350375826
 C         4.7769473938       -3.7878634722        1.9600161917
 C         0.8375378955       -6.3440995116        0.6334731086
 C        -0.3146077627       -5.4890176284       -0.0996991375
 C        -1.7671702479       -5.5250175150        0.5197482797
 C        -2.1662514087       -4.1446282419        1.2050883759
 C        -3.6191130921       -3.8463176331        1.5862250827
 C        -2.7436379453       -5.6607291701       -0.6865129404
 C        -1.8661721015       -6.6878420262        1.5610808167
 O        -0.1176889799       -5.0039818556       -1.1592953083
 O        -1.2823591681       -3.3445677118        1.4622611175
 C        -3.7536197934       -3.0932210895        2.9495336194
 C        -3.5272684260       -4.0982144348        4.1239642979
 C        -3.3226139860       -3.5845239900        5.6593299924
 C        -2.3928906575       -2.2669856700        5.6446762922
 C        -0.9081220110       -2.4303768505        6.0075321154
 O        -3.4927249520       -5.2774152591        3.9143063012
 O        -2.8044136231       -1.2507591129        5.0702323583
 C        -4.7772438654       -3.1423356156        6.0306832968
 C        -2.7723859621       -4.6873076097        6.4680112314
 H        -7.7870964246        4.4721524606       -3.6610675361
 H        -5.9214045764        4.5389624048       -3.3917930458
 H        -7.0242939972        3.2773156487       -2.6241642839
 H        -5.2962663754        5.6646536279        0.6924631535
 H        -4.7070121162        4.7642193377       -0.5456703532
 H        -6.8200970360        8.3624723427       -2.8109636778
 H        -7.8879526006        7.1402722197       -3.2673239859
 H        -6.2282783572        6.8955123435       -3.5458134525
 H        -6.9716705127        7.1209913317        0.4330150971
 H        -7.7274285300        8.2866627863       -0.5663801846
 H        -8.2738311899        6.4891203251       -0.2778405964
 H        -3.0584970108        7.2907240723        0.0390722020
 H        -2.9722809287        6.0365962329        1.2720589306
 H         1.9181034295        7.0982932988       -1.4346830559
 H         2.3109329616        6.2951154999        0.1438535599
 H         0.1690061717        7.7738797735       -2.2364637517
 H        -1.5008028239        8.2019212888       -1.6260003853
 H        -1.2955477526        6.8776561841       -2.7076087106
 H        -0.6737316083        6.7318633825        1.3868086585
 H         0.3076099474        7.9203078494        0.6256887069
 H        -1.3675155621        7.9808851593        0.6045170637
 H         3.7589875508        5.6866320572       -2.1744856102
 H         2.6031695307        4.5019735997       -2.1537237493
 H         2.3131555017        1.2089984728        1.2785623561
 H         2.3596133523        3.0409781454        1.0463336333
 H         6.0949413956        3.4724570924       -1.6402570099
 H         4.6665961460        3.5781447655       -2.5745072339
 H         5.4038122891        1.9976494241       -2.3797228182
 H         5.9454709672        3.2754451508        0.8153335650
 H         4.6911751261        2.1962483280        1.4826601424
 H         5.7507711701        1.7294666985        0.1925683740
 H         0.1410013282        2.5181186135        0.7113618627
 H         0.6811855848        2.6283669084       -0.9584777634
 H        -0.7775558921       -0.4567775962       -3.8706561874
 H         0.8321724116       -0.3351823376       -3.1069697741
 H        -3.0609029621       -0.3507700282       -0.3050449783
 H        -2.1337043024        0.8419023412        0.7715125548
 H        -1.7446736620       -0.8938371611        0.6053753104
 H        -2.0928912712        1.2261773127       -2.8375333323
 H        -1.6731632936        2.3130920135       -1.6920482735
 H        -0.4879337192        1.6533102111       -2.5974218335
 H         0.3264066111       -2.4357107509       -4.7148426346
 H        -0.3258935273       -3.0625937028       -3.0972187784
 H         4.8654696803       -4.7913456041       -2.7195185231
 H         5.9976097183       -3.3463905077       -2.4444501596
 H         2.5368480642       -5.3269899221       -2.8779640796
 H         3.3141121240       -5.5150655377       -4.4482082184
 H         1.5302447829       -5.4426666079       -4.3092707160
 H         2.2725420078       -2.1260149360       -5.7972291484
 H         3.4543415911       -3.3952297281       -6.1758689465
 H         1.7861696738       -3.7417153862       -6.0197157109
 H         5.6823504773       -3.3786580897       -0.5605244885
 H         4.0094743412       -2.6370508367       -0.6447539755
 H         1.9694522364       -6.4150543300        2.5147880374
 H         0.7948760261       -4.9596402635        2.4267798296
 H         3.8575482485       -7.1738963868        1.0560894463
 H         4.1728156403       -6.4660303814        2.7462757754
 H         5.4170202958       -6.5300595130        1.6658220509
 H         4.5516722948       -2.7522125596        1.7462542650
 H         4.5871619400       -3.9046423553        3.0535839906
 H         5.8489196281       -3.8394516586        1.8371898775
 H         0.4869276097       -7.3838122313        0.8223214855
 H         1.6710495807       -6.4517360586       -0.0391580741
 H        -4.1528597228       -3.2153599985        0.9239284515
 H        -4.2795182201       -4.7052915155        1.6995377084
 H        -3.8271310862       -5.5412278808       -0.5313533959
 H        -2.5578395226       -6.6341869678       -1.2145196924
 H        -2.4609789309       -4.8417015499       -1.3384482442
 H        -1.6846060231       -7.5698935870        0.9024653140
 H        -1.1584814838       -6.6943227533        2.3820150271
 H        -2.7811840468       -6.7406312568        1.9994651184
 H        -3.2435000222       -2.1755080825        2.9854372561
 H        -4.8367721441       -2.9481321896        2.9757208506
 H        -0.8740816741       -2.7327999110        7.0867414118
 H        -0.3814802587       -3.2400851285        5.4281646224
 H        -0.3711896870       -1.4763110314        5.9417324775
 H        -5.6296683457       -3.7161989422        5.5203306729
 H        -4.9985001963       -2.1279414040        5.8570712952
 H        -4.9072119694       -3.1904384035        7.1223313386
 H        -2.8296703780       -4.5445309530        7.5578345357
 H        -3.3739648821       -5.6421893031        6.4160425794
 H        -1.7968207997       -5.1445927921        6.1992977690
 Na        0.5451233171       -2.7568750797       -0.0202489492
