155

 C        -5.8807316549        3.0995720222       -3.5188028376
 C        -5.7187355835        3.5531681446       -2.0138658023
 C        -6.2601883571        4.9655338647       -1.4582377295
 C        -4.9036855077        5.6333577575       -1.1112586344
 C        -4.2598506505        5.3451289574        0.3014316735
 C        -7.0436863553        5.7469983192       -2.4584411923
 C        -7.1475139385        4.6024749028       -0.2213984738
 O        -5.1282958285        2.7594394063       -1.2433749098
 O        -4.4436234039        6.4388775325       -1.8981196991
 C        -3.3046452440        6.4341983771        0.7203639449
 C        -2.0052504760        6.3379849703       -0.0248038244
 C        -0.9604401812        7.5321194705        0.0559530992
 C         0.2146650996        6.8456169555        0.9614285628
 C         1.7696332153        6.9361491803        0.5362651270
 O        -1.6618963587        5.2845566667       -0.5813840662
 O        -0.0622904248        6.3313694400        2.0086588425
 C        -0.5770367123        7.9609491102       -1.3884571650
 C        -1.5352138902        8.7463407166        0.8449725465
 C         1.9584472373        5.8083144364       -0.5206525453
 C         2.9859410080        4.8050646221       -0.0662373170
 C         2.9724169828        3.4277756756       -0.9620207767
 C         1.5635577158        2.8478964792       -0.6295714117
 C         1.3885108827        2.2793020449        0.7620589277
 C         2.9860435349        3.7095751794       -2.5131860064
 C         4.1450829762        2.6288533213       -0.5310868329
 O         3.7073186694        4.9687274748        0.8675252320
 O         0.6583410964        2.8798655860       -1.4617933595
 C        -0.1800124412        1.7852505889        0.8834292360
 C        -0.3038134493        0.3422105753        0.3355992418
 C        -1.3686743089       -0.0128143601       -0.7111913650
 C        -0.6009555036       -0.8185430787       -1.8846975795
 C         0.2976881251        0.0008376819       -2.7377979223
 O         0.4916177963       -0.4720086973        0.7358108496
 O        -0.8341886437       -1.9882492610       -2.1065380292
 C        -2.4537565508       -0.9737734378        0.1182234890
 C        -2.2890958344        0.9303386453       -1.4096608588
 C         1.3083814929       -0.8507191434       -3.5252065575
 C         2.5548961075       -1.4016730905       -2.7432661229
 C         3.9468681970       -1.5511186107       -3.4997765086
 C         4.9103439261       -2.5996412207       -2.8544787797
 C         4.3255315661       -3.8783286988       -2.0937625011
 C         3.6673105429       -1.7272287320       -5.0789214539
 C         4.6319770124       -0.2206647712       -3.2376169018
 O         2.5037600878       -1.7970103037       -1.5690152550
 O         6.1034362709       -2.4095420658       -2.9984970826
 C         4.6234804224       -3.7967448211       -0.5708790507
 C         4.1130611374       -5.0519242989        0.2367114052
 C         3.8527403098       -4.7403241900        1.7985604340
 C         2.3015085915       -4.5614017322        1.8688678303
 C         1.3073828136       -5.6838612294        1.9776457684
 O         4.0346690048       -6.1653236996       -0.2052299634
 O         1.8756993753       -3.4687669347        1.5302242597
 C         4.3297642431       -5.9366644088        2.7052515272
 C         4.6925794146       -3.5282789158        2.2476711720
 C         1.3142197848       -6.5308909410        0.7732965415
 C         0.8886798362       -5.7135621599       -0.3817600166
 C        -0.5415262412       -5.9290950883       -0.8858236707
 C        -1.4644410874       -5.1892183607        0.2139134205
 C        -2.7622640311       -5.8520072439        0.6882809488
 C        -0.7688401903       -5.3240693120       -2.2941558041
 C        -0.8446349329       -7.4988313752       -0.9693462065
 O         1.6070543765       -4.8418876157       -0.8150264325
 O        -0.9581391614       -4.1876047122        0.7353970897
 C        -3.7397710661       -5.1576174354        1.6161215257
 C        -3.4199110998       -5.1676000012        3.1663280656
 C        -4.4283837944       -4.3160468127        4.0938527515
 C        -4.0471080886       -2.8195146216        3.7192992030
 C        -3.1268644184       -1.9733737683        4.7165231944
 O        -2.5470115188       -5.8792766637        3.6098584555
 O        -4.4600157916       -2.3935500112        2.7292542552
 C        -5.8211205665       -4.6849767359        3.6978820028
 C        -4.1382242790       -4.6598139873        5.6100556129
 H        -6.4507967141        2.1690050837       -3.6893157054
 H        -6.3575060642        3.9524998069       -3.9358106546
 H        -4.9636677541        2.9480221951       -3.8656021510
 H        -5.1286732380        5.0978570405        0.9351569430
 H        -3.7902441270        4.3561490906        0.2752290202
 H        -7.4873624219        6.5267495058       -1.8973489400
 H        -7.8329552759        5.1693143750       -2.9076168939
 H        -6.4130866216        6.1238184000       -3.3151148922
 H        -6.6835658433        3.7886566520        0.3818730885
 H        -7.3990028437        5.4604521279        0.2850197838
 H        -8.1495857561        4.2400265136       -0.6274575598
 H        -3.7376692414        7.4007686968        0.5440531343
 H        -3.0301725472        6.3709100908        1.7841406919
 H         2.0646891654        7.9086642873        0.0781869323
 H         2.3700011727        6.6261664579        1.3844406954
 H         0.1763253876        8.7831399825       -1.4717696088
 H        -1.3989536451        8.2784858028       -1.9592496703
 H        -0.0906709099        7.0854342476       -1.8557868260
 H        -1.4120787037        8.5575691331        1.9079605596
 H        -0.9181629710        9.5740840509        0.5303303505
 H        -2.5470857599        9.0214397260        0.5714725557
 H         2.2976703844        6.2721439027       -1.4680309398
 H         1.0552110285        5.3353233675       -0.8293622140
 H         2.1218735851        1.4946540658        1.0290692249
 H         1.4513313148        2.9995626256        1.5450049521
 H         3.7661548263        4.3803021841       -2.8141653709
 H         2.0564054754        4.1890302553       -2.9047496711
 H         3.1779996613        2.7534544339       -2.9001671281
 H         5.0470190600        3.2066904894       -0.7139969773
 H         4.1280553976        2.5153243340        0.5290436979
 H         4.2782615951        1.6827546829       -0.9261510124
 H        -0.5511886773        1.7056520152        1.8958782741
 H        -0.8232769346        2.5011212991        0.3028284823
 H        -0.2553614999        0.5917055315       -3.5282631201
 H         0.7806149454        0.6600176023       -2.1234842395
 H        -2.9615963636       -1.6601012122       -0.6088094821
 H        -3.1540082730       -0.3510672946        0.5739989808
 H        -1.9071393429       -1.5402910296        0.9046595247
 H        -3.1709445362        0.3740864797       -1.8622266172
 H        -2.6551521342        1.8001784316       -0.8427035369
 H        -1.8265710938        1.3028554900       -2.3448552020
 H         1.6546341497       -0.2972345830       -4.4105005829
 H         0.7495220064       -1.6854925765       -3.8295961968
 H         3.2934229088       -3.8391737939       -2.2940542897
 H         4.8307746220       -4.7321445073       -2.5467099152
 H         2.7576331090       -2.3410005073       -5.3674784731
 H         4.5223166948       -2.2337256204       -5.4942207631
 H         3.5990780513       -0.7712394401       -5.5152084536
 H         4.5147884539        0.0649394431       -2.2365809853
 H         5.6430831091       -0.2410520368       -3.4599851326
 H         4.1940757053        0.5984144647       -3.8287253509
 H         5.7704186010       -3.6510905945       -0.4745443677
 H         4.2409063560       -2.8993769750       -0.2264429066
 H         1.4156642611       -6.2379058703        2.9036213860
 H         0.4136940408       -5.1234343109        2.1690830959
 H         4.0588822591       -6.9174244022        2.2674618096
 H         3.9603704826       -5.8227950211        3.7038125561
 H         5.4154249091       -5.9414882680        2.8574820336
 H         4.1938623382       -2.6215599633        1.8648305807
 H         4.7642476802       -3.4532872197        3.2803603917
 H         5.7056579388       -3.7249405150        1.8299751687
 H         0.4938588359       -7.1918970956        1.1050825228
 H         2.2120279800       -7.1559094300        0.5921791597
 H        -3.3887527491       -6.1360557709       -0.1479415865
 H        -2.4817892548       -6.8755377864        1.1430659777
 H        -1.5924364347       -5.8623401035       -2.7144030155
 H         0.0861233907       -5.3330731599       -2.8918104631
 H        -1.0577241564       -4.2950684547       -2.1800023841
 H        -0.1573930353       -8.0109158998       -1.6468308939
 H        -0.7779956311       -8.0472827497       -0.0726235488
 H        -1.9027577905       -7.6237578466       -1.3337375599
 H        -3.7565428837       -4.0896255807        1.3968363204
 H        -4.7380659677       -5.6374753979        1.3874136985
 H        -3.6098878726       -1.8521854085        5.6652406676
 H        -2.3114713139       -2.6184422859        4.9674235737
 H        -2.8350432119       -0.9920670610        4.3147380985
 H        -6.0522026980       -5.6834571040        4.1449757555
 H        -5.9205329315       -4.8118439377        2.5548123788
 H        -6.5037746845       -4.0187682623        4.1812057847
 H        -3.9893028690       -3.6997782217        6.1853990593
 H        -4.8747852642       -5.3896181472        5.9577287969
 H        -3.1016137218       -5.0316250062        5.5709106918
 Na        0.6971872001       -2.7937556621       -0.2977936692
