155

 C        -5.5614821855        3.3507020203       -3.7488059332
 C        -5.3750131838        3.4339923224       -2.1751343556
 C        -6.2107050602        4.5097489693       -1.3776065907
 C        -5.1204266273        5.6193933128       -0.9508126155
 C        -4.5330834811        5.4350975413        0.4766548375
 C        -7.2584727877        5.1939963989       -2.3632814062
 C        -6.9960797122        3.8945311172       -0.1936184426
 O        -4.4717924292        2.8328086318       -1.5744424640
 O        -4.7601212926        6.4628702809       -1.7184116474
 C        -3.4906659365        6.5816756048        0.7412353418
 C        -2.0526080166        6.3876560865        0.1489657514
 C        -1.0136416505        7.5800450078        0.2589285711
 C         0.1323914188        7.0027261488        1.2924246452
 C         1.6217846289        6.7769351850        0.8745749024
 O        -1.7175142791        5.3601366854       -0.4097755722
 O        -0.2172537806        6.8625493012        2.4389554465
 C        -0.5524586019        7.8680182145       -1.1874850478
 C        -1.3646674110        8.9128113618        0.9336530445
 C         1.7439655745        5.8714556981       -0.4284410102
 C         2.8648361633        4.7923290133       -0.0773089787
 C         2.6921876219        3.4865915759       -0.8654223766
 C         1.3147808512        2.8412612356       -0.6263908453
 C         1.0187028586        2.3192133496        0.7143757319
 C         2.9425188699        3.8539211809       -2.3444770103
 C         3.8025487592        2.4140697908       -0.3577294332
 O         3.6123241456        4.8892384038        0.8794038970
 O         0.5522055019        2.8312393557       -1.5653981961
 C        -0.4067943750        1.8250959088        0.8674115336
 C        -0.5628599388        0.3112031428        0.3917162141
 C        -1.5542630552       -0.0626696531       -0.8099740688
 C        -0.4291213335       -0.7062997855       -1.8696747525
 C         0.3489253473        0.1199838949       -2.8163056961
 O         0.0670992327       -0.5703180832        0.9513503852
 O        -0.4462500943       -1.9087706404       -1.9851281721
 C        -2.6114532937       -1.0267695734       -0.4405593960
 C        -2.2383056440        1.0545656132       -1.6455187321
 C         1.5240096958       -0.6819430045       -3.4918291130
 C         2.6802767092       -1.1957469921       -2.5738851651
 C         4.0180200916       -1.5126644771       -3.3696869880
 C         4.9796068282       -2.5894007133       -2.8063100076
 C         4.3470970145       -3.7504814994       -2.0379171543
 C         3.7929090498       -1.8534121843       -4.8226436972
 C         4.8235825425       -0.1615674257       -3.1146727164
 O         2.5608941054       -1.2579046306       -1.3079545700
 O         6.1711640345       -2.5525462782       -3.0100456805
 C         4.4000205194       -3.5345454328       -0.5048593039
 C         4.3347551700       -4.7586220616        0.3161771271
 C         3.9758325303       -4.7271674957        1.8861988432
 C         2.4465984135       -4.4113333356        2.0583621476
 C         1.3422948085       -5.5871714061        2.1505685290
 O         4.6221956107       -5.8230113791       -0.2034707437
 O         2.0250315249       -3.2483311498        2.0986936441
 C         4.4855405155       -6.0030955375        2.4864916769
 C         4.8230725957       -3.5731419509        2.3986654889
 C         1.1808899779       -6.5782985009        0.8957794384
 C         0.8771682534       -5.8014948019       -0.3490089175
 C        -0.4291787867       -6.0665252477       -1.0723188247
 C        -1.5067524220       -5.3119223988       -0.1010048709
 C        -2.5375039189       -6.0539782454        0.6220207595
 C        -0.5113506120       -5.2777836635       -2.4842263448
 C        -0.7710436696       -7.5523306147       -1.2213762682
 O         1.6090030702       -4.8732963708       -0.6732557169
 O        -1.4186210672       -4.0849020957        0.0424061741
 C        -3.6232978447       -5.2535752457        1.3302906324
 C        -3.4984690683       -5.3910100391        2.8745862335
 C        -4.3426569598       -4.3860615296        3.8360084339
 C        -4.0699812948       -2.9192308582        3.2999766079
 C        -3.2342655672       -1.9898042749        4.1099199778
 O        -2.8361444390       -6.3152573704        3.3726387468
 O        -4.5304371846       -2.6259382474        2.2465574404
 C        -5.8682792892       -4.8224297152        3.5426217801
 C        -3.8779673258       -4.6825385650        5.3014442867
 H        -6.6054296295        3.4044830558       -4.1656518202
 H        -4.9670968095        4.1455042905       -4.0352503076
 H        -5.0661333499        2.4078741981       -4.0110111090
 H        -5.3687180412        5.1683752377        1.1349849132
 H        -4.0914512449        4.4766950113        0.4057153383
 H        -8.0111245808        5.7289992240       -1.8024492909
 H        -7.7572515611        4.5248034710       -3.0870869177
 H        -6.6608229752        5.8801435385       -3.0435170531
 H        -6.2806300067        3.4988032239        0.5030290298
 H        -7.6910775310        4.5827423182        0.2360369522
 H        -7.4587202060        2.9765031283       -0.5229415483
 H        -3.8478881925        7.5703979092        0.4094451741
 H        -3.3461243260        6.5606838979        1.8532281438
 H         2.0264658695        7.8111033226        0.6749821294
 H         2.0435861263        6.3127987370        1.7350734316
 H         0.2339624309        8.6678371650       -1.3330748170
 H        -1.3716546728        8.1644150152       -1.8101145683
 H        -0.1786229171        6.9463841649       -1.7058528267
 H        -1.6658170582        8.7672909727        1.9480807862
 H        -0.5730361075        9.5855357753        0.7136673019
 H        -2.1647146072        9.3577562460        0.3136098104
 H         2.1372736041        6.4511703417       -1.3158668002
 H         0.7454846957        5.5886772756       -0.6907475574
 H         1.7287731467        1.5451266591        1.0901207734
 H         1.1362310577        3.1716916143        1.4109360862
 H         3.9475768324        4.3205247901       -2.4874316680
 H         2.1319457526        4.5202186075       -2.6307650179
 H         2.8126043766        3.0174494067       -2.9659573205
 H         4.5578056262        2.1433775052       -1.1192084006
 H         4.4442508906        2.9421269219        0.3915654204
 H         3.5004672538        1.4389123379        0.0873115326
 H        -0.8036548741        1.8563274674        1.8575895519
 H        -1.1104711346        2.4273584007        0.2479510417
 H        -0.3534326923        0.5459263217       -3.5702545755
 H         0.8424169006        0.8963057252       -2.3875694459
 H        -3.2872959555       -1.0927375027       -1.3093288779
 H        -3.0685453519       -0.7346040723        0.5464161805
 H        -2.1711216956       -1.9423390211       -0.3439729761
 H        -2.8158638330        0.5299576318       -2.4434670650
 H        -3.0474588464        1.4684226570       -1.0467202159
 H        -1.5756111164        1.8265126302       -2.0742962935
 H         1.9198414927       -0.0253750896       -4.2873405599
 H         1.1707577746       -1.5630924745       -3.9561913192
 H         3.3147260648       -3.9866003833       -2.2337025037
 H         4.9839001304       -4.6727798491       -2.2701083693
 H         3.6194360505       -2.9592669777       -4.9226760057
 H         4.6756793366       -1.6612474119       -5.3872957651
 H         2.9911823394       -1.3520834437       -5.2089451483
 H         5.0527734128       -0.1341605130       -2.0435359211
 H         5.7528812653       -0.0403915795       -3.6374387467
 H         4.1664331650        0.7861677563       -3.3046168015
 H         5.3622615958       -2.9326172318       -0.1642334284
 H         3.5570665077       -2.9202488204       -0.2174913735
 H         1.2780903812       -5.8878195151        3.1899796731
 H         0.4548888026       -4.9634987246        2.1674424836
 H         3.8640593495       -6.8566619808        2.1578849930
 H         4.4847042609       -6.0106833278        3.5299948370
 H         5.5565747567       -6.2222145220        2.1535715182
 H         4.6895696411       -2.6395419403        1.8456314741
 H         4.6445256310       -3.5308761705        3.4760187202
 H         5.8805621093       -3.9468243457        2.3104136474
 H         0.5094097996       -7.3295554919        1.1650617006
 H         2.1167791083       -7.0689885853        0.6441584740
 H        -2.9963898918       -6.5996144815       -0.1778953884
 H        -2.0889779532       -6.7794460918        1.3306672887
 H        -1.5711971407       -5.1396349008       -2.7756949586
 H        -0.1573801937       -5.9920133175       -3.1470086728
 H        -0.0447856806       -4.3315523569       -2.5251361195
 H        -0.0065009425       -8.0054062060       -1.7768151832
 H        -0.8668966610       -8.0484325962       -0.2859272478
 H        -1.8135512738       -7.6947091825       -1.6516132545
 H        -3.4400291741       -4.2597203578        1.1097157892
 H        -4.5704610020       -5.6796555813        1.0042324786
 H        -3.5678180951       -1.7310677928        5.0815725239
 H        -2.2917135770       -2.4593897810        4.2289980893
 H        -3.1568561998       -1.1200633020        3.4606444599
 H        -5.8620710182       -5.9033142873        3.4183775007
 H        -6.3443914522       -4.3651731052        2.6157105614
 H        -6.3427479866       -4.4942558512        4.4515856992
 H        -4.7271053472       -4.3107752820        5.9988716171
 H        -3.5588488764       -5.7285334920        5.2862014915
 H        -2.9185798247       -4.1130445775        5.3615451352
 Na        0.8008908813       -2.8265585376        0.1009228130
