155

 C        -5.2286497785        3.3960872776       -3.8195729358
 C        -5.2693248798        3.4314735782       -2.2940634042
 C        -6.0794024680        4.4537919587       -1.4485653092
 C        -5.2353612140        5.6586919301       -0.9345463227
 C        -4.3843193051        5.5069348460        0.4494525846
 C        -7.2828225465        5.1556786046       -2.1756156741
 C        -6.6743244009        3.5562931090       -0.3032915952
 O        -4.5388734689        2.7156262221       -1.6415456031
 O        -5.1442993222        6.7264199578       -1.5728602302
 C        -3.5786498898        6.7280236697        0.8315355919
 C        -2.1816491761        6.5276468660        0.2257115757
 C        -1.0873602749        7.6389795202        0.3174712767
 C         0.0453213529        7.1635633260        1.3871097107
 C         1.4835329640        6.8144794120        0.9570303184
 O        -1.8025876290        5.4249475742       -0.1707346013
 O        -0.2865819091        6.9794564564        2.5342831081
 C        -0.5193381535        7.7863130198       -1.0722183194
 C        -1.7094942707        8.9690372675        0.9354839752
 C         1.7094607587        5.8309770590       -0.1563274807
 C         2.7899316101        4.7842700793        0.1513538928
 C         2.6993433728        3.3969427947       -0.7706963943
 C         1.2151790903        2.8378704163       -0.5657624053
 C         0.6910102593        2.5221490263        0.7949562374
 C         2.8708879966        3.6670488590       -2.3189028811
 C         3.9014639904        2.4919320134       -0.3951156179
 O         3.5969273257        4.8702527799        1.0236117016
 O         0.4435657579        2.8337735636       -1.5165042717
 C        -0.6543759064        1.7993147308        0.8106193634
 C        -0.6413346463        0.3944682027        0.3246806261
 C        -1.3720413932       -0.0392813557       -1.0405695007
 C        -0.3826468184       -0.8433879200       -1.9581453416
 C         0.4437886662       -0.0541256733       -2.8830971843
 O        -0.2219648614       -0.5147667151        1.0227492597
 O        -0.1248914790       -2.0467396849       -1.8189664928
 C        -2.5248831052       -1.0024900357       -0.4171672510
 C        -2.0428819603        1.2378547417       -1.7078655903
 C         1.5750289153       -0.7769926464       -3.6540237162
 C         2.6580398061       -1.1913243772       -2.6337852293
 C         4.1048862239       -1.3737417752       -3.3143951484
 C         4.8960631768       -2.5334563288       -2.5856345742
 C         4.1406166530       -3.6011553819       -1.8588996345
 C         3.9590058074       -1.8356896679       -4.9067825789
 C         4.9003084089       -0.1202551568       -3.3099905448
 O         2.4601540366       -1.3670374512       -1.4858439323
 O         6.0921922184       -2.5710199776       -2.7676409736
 C         4.3540586984       -3.3418380390       -0.3022131272
 C         4.5374714120       -4.7164079921        0.4090640363
 C         4.1272755400       -4.7123853853        1.9607658972
 C         2.5856063458       -4.4472350401        2.0786804316
 C         1.6201670919       -5.6424484360        2.2181407320
 O         4.7648868879       -5.7349436508       -0.1636566800
 O         2.1513298080       -3.3255345777        1.8046039225
 C         4.4743003257       -6.1659723815        2.4305968294
 C         4.8246209193       -3.5553582754        2.7440320450
 C         1.2911482738       -6.4897997715        0.9889381334
 C         0.9396088392       -5.7474463599       -0.2961209185
 C        -0.3951582179       -6.0689546103       -1.1488062804
 C        -1.4246582672       -5.3406108940       -0.2335548517
 C        -2.6806347670       -6.1562057958        0.3235431959
 C        -0.2867367987       -5.4015155140       -2.5259060019
 C        -0.6371284379       -7.5838831208       -1.2587858719
 O         1.7972530965       -5.0451117516       -0.8166728894
 O        -1.4596156984       -4.1411451210       -0.0269425013
 C        -3.7800164010       -5.4032841022        1.2088263260
 C        -3.4950441680       -5.5529666763        2.7033768919
 C        -4.2634837451       -4.4570543678        3.6495580270
 C        -4.1076856872       -3.0088121865        3.1319572816
 C        -3.2705905828       -1.9958140025        3.9708183691
 O        -2.8393034437       -6.4073754181        3.1999243896
 O        -4.6714803073       -2.5259352734        2.1422887414
 C        -5.7484748105       -4.8604274827        3.4820125782
 C        -3.8755083264       -4.5747978244        5.1522534903
 H        -6.3131887268        3.2144876453       -3.9753038767
 H        -4.9511662378        4.4403698313       -4.1370933989
 H        -4.6159798614        2.6819184384       -4.2336355973
 H        -5.1631516340        5.1668988779        1.0923822377
 H        -3.7397899576        4.5831166995        0.4418062535
 H        -7.4169365330        6.2209104388       -1.9201559696
 H        -8.1890423087        4.6131324317       -1.9622843221
 H        -7.2053057303        5.1354246800       -3.2470554609
 H        -5.8164319415        2.9463812961        0.0599692560
 H        -7.0709482018        4.1715529420        0.4962340483
 H        -7.3954268421        2.7695041858       -0.6596713402
 H        -3.9168443696        7.6481131988        0.3720693304
 H        -3.6379997142        6.7300144173        1.8982789535
 H         1.8748504910        7.7556873408        0.6605910011
 H         2.0436703582        6.4459179118        1.8724281218
 H         0.4037016660        8.3100384316       -1.0544109619
 H        -1.1965285662        8.3601818397       -1.7482557066
 H        -0.3891584945        6.8873460348       -1.6315271926
 H        -1.7605710006        8.7926622495        2.0242491261
 H        -0.9602610280        9.7762275240        0.7346929002
 H        -2.6538950994        9.2451698654        0.5121944749
 H         1.9582567531        6.3408368620       -1.0480819794
 H         0.7440672718        5.2578365408       -0.3444195143
 H         1.4254876709        2.0013728665        1.3867708945
 H         0.5265609145        3.4821778266        1.2978348189
 H         3.8267587755        4.0222412765       -2.4875942495
 H         2.0157795060        4.2680282226       -2.6726307706
 H         2.7659820317        2.7204973599       -2.9074091063
 H         4.6237330489        2.5612013917       -1.1838734268
 H         4.4538742561        2.6353571593        0.4865825577
 H         3.5828884639        1.5030573967       -0.4633736063
 H        -1.0486872757        1.5219326148        1.8273057350
 H        -1.4393116474        2.4251608956        0.4194681024
 H        -0.2254256675        0.3464980179       -3.6474433244
 H         0.9515133023        0.8792463348       -2.3999292654
 H        -3.0314150992       -1.5154563066       -1.2335891732
 H        -3.1333993737       -0.4104002910        0.1711525451
 H        -2.0349280557       -1.7971373942        0.2863530236
 H        -2.7370989418        0.8133776746       -2.4650656090
 H        -2.7068343958        1.7164525794       -0.9875221682
 H        -1.3045028950        1.9205098250       -2.1502376787
 H         2.0165198512       -0.0874838492       -4.3495559224
 H         1.0826008494       -1.5491312031       -4.3483218925
 H         3.0516271208       -3.5711452002       -2.0013190602
 H         4.4730065972       -4.5598735171       -2.0352688507
 H         3.1385122177       -2.5059171469       -4.9686440773
 H         4.8604221916       -2.3778977210       -5.2213165684
 H         3.8045436597       -0.9637030962       -5.6403504537
 H         5.1347169618        0.1689124127       -2.3148406389
 H         5.8580112044       -0.2979876921       -3.7823318289
 H         4.4056405648        0.6318250104       -3.7892383339
 H         5.2669964445       -2.8690617766       -0.1295307035
 H         3.6181057451       -2.7334983888        0.2038017022
 H         2.0872451494       -6.2833918431        2.9631137741
 H         0.7259857814       -5.2800902243        2.7472427901
 H         3.9337221224       -7.0234144960        2.0539887022
 H         4.3572962620       -6.3223399394        3.5662928761
 H         5.4661634054       -6.3020438256        2.2004839237
 H         4.1444858139       -2.7064209206        2.6422730646
 H         4.9868025903       -3.8764304379        3.7430123610
 H         5.7187450013       -3.2596416703        2.2491893175
 H         0.3796546468       -7.0426143931        1.4544624458
 H         2.1289943541       -7.2362394378        0.9375021115
 H        -3.1630808180       -6.7546008737       -0.5410438890
 H        -2.2638513911       -6.8582330164        1.0886406506
 H        -1.2552605783       -5.3805732055       -2.9220550186
 H         0.2869501137       -6.0266489037       -3.2283458705
 H        -0.0729105273       -4.3475985925       -2.3375044023
 H         0.1706023017       -8.0309851104       -1.9218171713
 H        -0.8674939884       -8.1400039863       -0.3331245872
 H        -1.4997286311       -7.6259273382       -1.8422188854
 H        -3.9325051087       -4.3078690955        0.8859540994
 H        -4.6253333395       -6.1041327575        1.1194621152
 H        -3.7021752557       -2.1607520634        4.9668967736
 H        -2.1912150625       -2.2244416345        4.0401463995
 H        -3.4784525145       -0.9813464330        3.6591285097
 H        -5.7765103825       -5.8720136620        3.9289714788
 H        -5.9021090200       -4.9922649167        2.4249889747
 H        -6.4471062447       -4.0994955259        3.8614999188
 H        -4.5576381818       -3.9243441917        5.5505480038
 H        -4.1130846215       -5.6073393301        5.3771949802
 H        -2.8233630491       -4.4506875862        5.3081035184
 Na        0.6015512777       -2.6269975825        0.0614776570
