155

 C        -4.5943443998        5.0064056511       -3.2349270400
 C        -5.3328898364        3.8794805893       -2.3445613171
 C        -6.3142676613        4.3614285600       -1.3237410296
 C        -5.7775083196        5.6932810184       -0.6129439300
 C        -4.5693168231        5.4942009796        0.3189337865
 C        -7.6873800003        4.7460902220       -2.1119906212
 C        -6.6876613002        3.3346024694       -0.2383964466
 O        -4.9600490914        2.6862912785       -2.4707276484
 O        -6.2904956975        6.7554563768       -0.8035319766
 C        -3.7494248785        6.7981545069        0.5053830647
 C        -2.2476530732        6.6486683725        0.4108284853
 C        -1.3416287100        7.9107301629        0.6844948232
 C        -0.1502230443        7.5841237650        1.6292814993
 C         1.2462012860        7.2037847545        1.1453562420
 O        -1.6892786754        5.5639608314        0.1898642402
 O        -0.4387976509        7.5933750901        2.8064874317
 C        -0.8579403964        8.3504115401       -0.6815527254
 C        -2.1957750244        8.9481693061        1.4567895646
 C         1.3099465613        5.9822698909        0.1789651070
 C         2.2922610722        4.8913308037        0.8185870947
 C         2.6062525125        3.4826339535       -0.0877835588
 C         1.3364345447        2.6622049337       -0.4286713623
 C         0.4706629581        2.1411968209        0.7333472389
 C         3.2930356717        4.0445155739       -1.3654124598
 C         3.5774030470        2.5531950875        0.6545378113
 O         2.7065708354        4.9013310474        1.9451021637
 O         1.0708948096        2.2953869995       -1.5700288076
 C        -0.9084349600        1.5231001548        0.2338625933
 C        -0.6124851261        0.0502087225       -0.1625357752
 C        -1.3144081609       -0.4942940124       -1.4088122895
 C        -0.3090527294       -1.3581105938       -2.3216078189
 C         0.4095805551       -0.5149430118       -3.4006974242
 O         0.2298428147       -0.5700477155        0.4684099316
 O        -0.1974247973       -2.5783571036       -2.1306854183
 C        -2.4781465174       -1.5837823369       -1.0242208965
 C        -2.0937190496        0.6004261815       -2.1749470948
 C         1.8478997149       -0.9916694494       -3.8208822361
 C         2.7808921989       -1.1444984076       -2.7106671068
 C         4.2159717874       -1.4141983126       -3.2143800622
 C         5.1204950222       -1.8611422160       -2.0461068011
 C         4.5586143824       -3.0478430093       -1.2779247260
 C         4.1123454534       -2.4470901415       -4.4184206460
 C         4.9524683974       -0.1849667608       -3.8727268587
 O         2.3979848779       -1.0485432177       -1.5410168217
 O         6.1398600681       -1.2842875793       -1.7860989276
 C         5.1830928309       -3.4352538210        0.1332723807
 C         4.7567152433       -4.7538643455        0.6741346498
 C         4.2697378926       -4.6421704598        2.1816245747
 C         2.6716213985       -4.3776872245        1.9797578678
 C         1.7725783696       -5.5328786312        2.1330776429
 O         4.6717742431       -5.7809031215        0.0281715154
 O         2.3651732230       -3.2396325108        1.6582419995
 C         4.5696233524       -5.8845912612        2.9930979873
 C         4.8486610257       -3.4133760713        2.9057812160
 C         1.5979167170       -6.3956970298        0.8229552891
 C         1.1832276069       -5.8074698887       -0.4544906953
 C        -0.2368328595       -6.2908533494       -1.0406795918
 C        -1.3444995604       -5.4500009293       -0.3280329311
 C        -2.7199935920       -6.1081828313       -0.3807845760
 C        -0.2891354297       -5.7665898989       -2.5514024570
 C        -0.3643656005       -7.8126866035       -0.9575272976
 O         1.7238263385       -4.8327482383       -0.9757797129
 O        -1.2414563059       -4.3092236858        0.0996251149
 C        -3.8381378920       -5.6977404292        0.5070105264
 C        -3.4504149868       -5.5913818370        1.9929179528
 C        -4.2431297681       -4.7909291494        2.9803367255
 C        -4.0310201669       -3.1146015414        2.5972979803
 C        -3.2668455342       -2.1311066624        3.4408109764
 O        -2.3330177364       -6.0856313961        2.3206597307
 O        -4.5093735352       -2.8365357672        1.5791675106
 C        -5.7374346112       -4.9780283510        2.7238620153
 C        -3.9133408187       -4.9762235693        4.4246761507
 H        -5.1963337708        4.9329972170       -4.1146387409
 H        -4.4270568478        5.9793277532       -2.9608117510
 H        -3.6429894921        4.5567617648       -3.5525033130
 H        -4.8836628775        5.2395442443        1.3007013836
 H        -3.7994833062        4.8050363902       -0.0700908668
 H        -7.6872312447        4.2761145748       -3.1128419460
 H        -7.8735430574        5.7841351315       -2.2633457538
 H        -8.5676294588        4.2341375918       -1.5853346018
 H        -5.7751440003        3.0682631151        0.2992915158
 H        -7.3549531277        3.6403645610        0.4811924025
 H        -7.0994029964        2.4007341658       -0.7365756398
 H        -3.9058127655        7.6590975261       -0.1860450997
 H        -3.9770114383        7.1498265803        1.5194449515
 H         1.7614408370        8.0334567904        0.7146485742
 H         1.8308897633        7.0765306962        2.1198352541
 H         0.0638255423        8.9815345314       -0.6724644100
 H        -1.5615634302        8.9552610536       -1.2287229421
 H        -0.4902279238        7.4963447786       -1.2620297575
 H        -2.6217001099        8.4667956684        2.3624594629
 H        -1.4232648153        9.6854292611        1.8076153346
 H        -2.9512052902        9.4347477481        0.8382323737
 H         1.7026226204        6.3065424903       -0.7623317896
 H         0.2262767288        5.6949622308        0.0706339239
 H         1.1718942697        1.4570406410        1.2634720999
 H         0.2727268162        2.9763638319        1.4504490528
 H         4.1226373706        4.7217355968       -1.2002757874
 H         2.5662628452        4.7110973255       -1.8590710791
 H         3.6101956035        3.2177483857       -1.9829119812
 H         4.6351417530        2.8207321662        0.3073611581
 H         3.5199967431        2.6067774762        1.7939418207
 H         3.3691690903        1.5153672491        0.3761150195
 H        -1.6498495212        1.4617809800        1.0292953360
 H        -1.3358342171        2.2882236133       -0.4645135225
 H        -0.1859354111       -0.2225168973       -4.2799062724
 H         0.5376080337        0.4541560889       -2.8792071627
 H        -2.9714880534       -1.9886829768       -1.9921293780
 H        -3.3333704193       -1.0537582365       -0.5586662378
 H        -2.0324245310       -2.2983708913       -0.4607117461
 H        -2.4564579225        0.0224855372       -3.0622139214
 H        -2.9073363660        0.8520709831       -1.4974672145
 H        -1.4267510373        1.4623175667       -2.3297776533
 H         2.2586105021       -0.3997540951       -4.5525224552
 H         1.7022277792       -1.9784389817       -4.2784444496
 H         3.4990618916       -2.7201478994       -1.0668262658
 H         4.5168966662       -3.9501674958       -1.9127407404
 H         3.3311830321       -3.2422783582       -4.3361037354
 H         5.0483229750       -2.9561537967       -4.5521035518
 H         3.9242086027       -1.8734323370       -5.3159693044
 H         4.8723601310        0.6289406264       -3.1072195339
 H         5.9753138462       -0.3333383520       -4.2031994552
 H         4.3175732246        0.2714941291       -4.7484814296
 H         6.2783800669       -3.6023486657       -0.0088284568
 H         5.0373266240       -2.7249617303        0.8026480418
 H         2.1434478912       -6.0705745719        2.9800075745
 H         0.7753393970       -5.1652678835        2.3213516470
 H         4.3883954183       -6.8485341884        2.4935110215
 H         4.1670912072       -5.8910141614        3.9864697647
 H         5.6351308423       -5.9720885538        3.2851036353
 H         4.0615489229       -2.6160776261        2.8329150477
 H         4.9178084307       -3.6555237686        3.9316913182
 H         5.9042599634       -3.1451949553        2.5661189351
 H         0.9457229305       -7.2461631039        1.1589806423
 H         2.6035537460       -6.8578788304        0.8138298916
 H        -3.0241344019       -5.7491780961       -1.3873790296
 H        -2.6391177761       -7.1901431785       -0.4975617351
 H        -1.3464796187       -5.7811002740       -2.8109124831
 H         0.2911156716       -6.4152838665       -3.1843689259
 H         0.2093565795       -4.8124278956       -2.6714976512
 H         0.6167075639       -8.2966039631       -1.1123203335
 H        -0.7505226325       -8.2118219140       -0.0650842269
 H        -1.0846062025       -8.0153202958       -1.7872399037
 H        -4.1685275496       -4.6767838976        0.2233255137
 H        -4.7496088471       -6.2791240419        0.3441312628
 H        -3.6733790694       -2.2364924086        4.4294075430
 H        -2.1982047447       -2.1824346776        3.3703033901
 H        -3.5314281115       -1.1186042300        3.0847628871
 H        -5.9474334144       -6.0294739897        2.9203695604
 H        -5.9782575573       -4.6851058140        1.6564843185
 H        -6.2728675269       -4.5021698440        3.4628747036
 H        -4.3958917172       -4.0307866416        4.8946338093
 H        -4.3653643390       -5.9140209649        4.7691361462
 H        -2.8119589640       -4.8644775971        4.4491806609
 Na        0.7198039805       -2.8667681325        0.0948470919
