155

 C        -4.6762425223        5.1979971750       -3.3187800990
 C        -5.4318029586        4.0072748392       -2.5359805748
 C        -6.4713309161        4.5193896974       -1.4212902531
 C        -5.9716102499        5.5981931490       -0.3800960314
 C        -4.5474103479        5.5112523791        0.2474198302
 C        -7.7793990007        4.9197257708       -2.0360690567
 C        -6.6972198321        3.2684314537       -0.4438979805
 O        -4.9808447592        2.8935762165       -2.6624771302
 O        -6.7265641903        6.5116338190       -0.1925973355
 C        -3.9489285546        6.9595356413        0.6602035575
 C        -2.4206273675        6.8734798466        0.6573272167
 C        -1.4606328694        8.0912935270        0.9022751645
 C        -0.2855707312        7.5811052083        1.7854872021
 C         1.1206741308        7.2241519361        1.0445183450
 O        -1.8839100739        5.8537045651        0.2722191649
 O        -0.3647564967        7.4243265779        3.0024073363
 C        -1.0044980355        8.4160006465       -0.5993566141
 C        -2.1661586092        9.1481369678        1.7150443079
 C         1.1306774536        5.8663204407        0.2344560599
 C         1.8450544290        4.7432168726        1.0457764431
 C         2.6116914316        3.5646329775        0.2675480539
 C         1.5074502411        2.5977653361       -0.2828725885
 C         0.4540404284        2.0020429826        0.7392820643
 C         3.5168925500        4.0342267262       -0.9060288472
 C         3.5846332305        2.6721398650        1.2239306102
 O         1.6738878709        4.5795465855        2.2696496815
 O         1.3423314796        2.4829614463       -1.4734442868
 C        -0.8607017563        1.6349992037       -0.0487208654
 C        -0.8162054594        0.0598993667       -0.3158034551
 C        -1.4812303272       -0.6097948341       -1.5371699593
 C        -0.3189693386       -1.2040348329       -2.4420729291
 C         0.4654754817       -0.4060840612       -3.5219699338
 O        -0.1907141644       -0.5985691715        0.4720838882
 O        -0.1900203948       -2.4443221039       -2.4379496667
 C        -2.2971800407       -1.8056252160       -1.1521596737
 C        -2.3877811008        0.4342388433       -2.3494878345
 C         1.7878937317       -1.1908543082       -3.9025652675
 C         2.7437654962       -1.5096045166       -2.8079033981
 C         4.3737769508       -1.7605734161       -3.1617118074
 C         5.1507179773       -1.7041978190       -1.6720505122
 C         5.0965268438       -3.0806993189       -1.0613705014
 C         4.6033426054       -2.8826904970       -4.1686614012
 C         4.7864614108       -0.3816503627       -3.7883439467
 O         2.3865979050       -1.3462591618       -1.6168327624
 O         5.5108555001       -0.6708096262       -1.1642052533
 C         5.6978934076       -3.2637665662        0.3754015000
 C         5.0463493634       -4.6176807126        0.8767232368
 C         4.2457944053       -4.4749968760        2.2815976389
 C         2.7720885677       -4.1712377101        1.8025362792
 C         1.7370856758       -5.2970533931        1.9636484783
 O         4.9592464395       -5.6746337398        0.2902200813
 O         2.4714149964       -3.0751947711        1.3972640844
 C         4.3681297245       -5.8361360472        3.0877754173
 C         4.7351578012       -3.3694459358        3.3773837982
 C         1.8159466439       -6.3409419222        0.7864972115
 C         1.2877697842       -5.8065607286       -0.5524659544
 C         0.0637408148       -6.4529717028       -1.2628848040
 C        -1.1774483090       -5.6315957103       -0.7353810473
 C        -2.4810178351       -6.2795141953       -0.4557220070
 C         0.1656523740       -6.0691984406       -2.7054211689
 C        -0.0948791938       -7.9827685386       -1.0858518178
 O         1.7641346586       -4.8362409575       -1.1038865994
 O        -0.9376154233       -4.4790470499       -0.4792978363
 C        -3.5435676732       -5.4583662089        0.2097294386
 C        -3.3946060681       -5.5560428481        1.7548062823
 C        -4.3078937693       -4.6581731104        2.7192628590
 C        -4.0547879834       -3.1103606444        2.4897624469
 C        -3.1613164075       -2.3128248519        3.5087962006
 O        -2.4334151505       -6.3060398819        2.1569339429
 O        -4.3771812908       -2.6542407513        1.4639147830
 C        -5.7986867809       -4.9746444800        2.4293318782
 C        -3.9438274031       -5.0956060568        4.2732749713
 H        -5.3980576162        5.7812888615       -3.7444467226
 H        -4.0972543490        5.8803961659       -2.6978031698
 H        -4.0611841583        4.8106354037       -4.1856899639
 H        -4.5776481702        5.0261366237        1.1965975725
 H        -3.7720463205        5.0955432165       -0.4213758320
 H        -8.5740109429        4.3159960863       -1.6272850647
 H        -7.8946991815        4.7384928688       -3.0488860279
 H        -7.9429279999        5.9931779830       -1.7375299904
 H        -5.9096462423        2.8041429275        0.1013657075
 H        -7.5167139260        3.5770602242        0.2069970193
 H        -7.1068143948        2.4532776410       -0.9913539926
 H        -4.3370315534        7.6553722276       -0.1365893846
 H        -4.2797960284        7.4257358788        1.6227283620
 H         1.4281514525        8.0428722810        0.4314309465
 H         1.8947468222        7.1321420664        1.8629537903
 H        -0.1374489337        9.0677153826       -0.8544321736
 H        -1.8725623749        8.7644201304       -1.0557127983
 H        -0.7548267601        7.4560244624       -1.0504724026
 H        -2.6375132910        8.6209133518        2.5315639049
 H        -1.5553958581       10.0333875236        1.8048399793
 H        -2.9728242025        9.5962638966        1.0976785176
 H         1.5673483342        5.9632775353       -0.7498563894
 H         0.1339149443        5.3099185269        0.1191880064
 H         0.6452977164        1.0759969807        1.3331851499
 H         0.4171150002        2.8642303774        1.3904091850
 H         4.0886347036        4.9304738476       -0.5211199331
 H         3.0107139124        4.4210890269       -1.8189195463
 H         4.0908440777        3.2040654223       -1.2315116165
 H         3.8869184338        3.3676742878        1.9660825172
 H         3.0777222328        1.8439321870        1.6698402654
 H         4.4918647527        2.3944217009        0.6773992108
 H        -1.7131108135        1.9688182851        0.5033176143
 H        -0.8681641052        2.1401544597       -1.0555095813
 H        -0.1370184180       -0.1144391493       -4.3918526863
 H         0.7493284985        0.5385537369       -3.0863776538
 H        -2.5253609325       -2.3102100516       -2.0764405909
 H        -3.1327004114       -1.5564454463       -0.4630989240
 H        -1.5553859462       -2.4242140295       -0.6274405427
 H        -2.5674172387       -0.1435265185       -3.2237162029
 H        -3.2776380269        0.4146204832       -1.7858914201
 H        -1.9060589462        1.3566077102       -2.4952593849
 H         2.3540406995       -0.6906359819       -4.6283125690
 H         1.4807760734       -2.2014664670       -4.2830991364
 H         3.9636358312       -3.3703913174       -1.0732404197
 H         5.6371832034       -3.9144877888       -1.6081456369
 H         4.0241254456       -3.8857829889       -4.1771943812
 H         5.6283305336       -3.2088292383       -4.0328325804
 H         4.4567720265       -2.4393917487       -5.1301645644
 H         4.4445872920        0.3486839147       -3.0819076962
 H         5.8440437124       -0.3825873345       -3.9415924083
 H         4.2880950364       -0.0954266694       -4.7924049695
 H         6.7799693500       -3.4266777196        0.4010814218
 H         5.3952740161       -2.4722382884        1.0054470331
 H         1.9468227038       -5.8648871623        2.8811948540
 H         0.6949693794       -4.8975404510        2.0493758582
 H         4.0588398907       -6.7119493728        2.5136077489
 H         3.8982723706       -5.7576463798        4.0010605769
 H         5.4072173541       -6.1940225281        3.4051106488
 H         4.9276499333       -2.4099347945        2.9161456570
 H         3.9810974330       -3.2113939302        4.1052596301
 H         5.5706957815       -3.7774030507        3.9819826095
 H         1.4096050848       -7.2201653220        1.2871535767
 H         2.8688309635       -6.6313129521        0.5856448252
 H        -2.8614249873       -6.6032030651       -1.3813397930
 H        -2.2168739798       -7.2002824322        0.0000078779
 H        -0.5301987346       -6.6908631956       -3.4179789850
 H         1.2192660405       -6.2180419800       -3.0495871442
 H         0.0400286364       -4.9641203437       -2.7833125986
 H         0.8108101844       -8.4375055808       -1.4440981215
 H        -0.2775271299       -8.2632926673       -0.0643098534
 H        -1.0432129081       -8.4098650005       -1.6214016167
 H        -3.5578622163       -4.4208043463       -0.0674571696
 H        -4.5057748158       -5.7011601194       -0.1923992774
 H        -3.8276339183       -2.0155936837        4.3407775212
 H        -2.3441259156       -2.9519996763        3.8865455589
 H        -2.6274021008       -1.4325689588        3.0580558229
 H        -5.9629951915       -6.0148569976        2.5693715446
 H        -6.0675372518       -4.7213868181        1.4090946917
 H        -6.3535161252       -4.4128695793        3.1259444284
 H        -4.2698713285       -4.2519616440        4.9078503833
 H        -4.3436510458       -6.0570135040        4.4997318278
 H        -2.8696643641       -5.1873974534        4.3371017133
 Na        0.8720159630       -2.8351898414       -0.5429126868
