155

 C        -5.0018820492        5.4657151174       -3.2045190755
 C        -5.4286069818        4.2346874821       -2.3334665534
 C        -6.5506367915        4.4639421289       -1.2632838460
 C        -6.0085439685        5.6321240690       -0.3193864745
 C        -4.5991741707        5.5037288010        0.1178900068
 C        -7.7298982059        4.9446030224       -2.1036089152
 C        -6.8122108112        3.1198386332       -0.6351933428
 O        -4.9450746140        3.1254134481       -2.5368654515
 O        -6.7064181772        6.5610181668       -0.0164601080
 C        -3.9495413028        6.7889232172        0.6362597535
 C        -2.4235682295        6.7468713390        0.6048298660
 C        -1.5116804392        8.0210452403        0.8536288792
 C        -0.2741274094        7.4997683611        1.7354882610
 C         1.0788476494        7.1299844256        1.1259932618
 O        -1.9172662588        5.6516994310        0.3263845971
 O        -0.5043741796        7.3525205693        2.9216689344
 C        -1.1404072043        8.7176323175       -0.4460282519
 C        -2.1081126758        9.1666977522        1.7160242684
 C         1.1977285171        5.8779620038        0.3593176769
 C         1.7321394839        4.6863693764        1.2609905427
 C         2.5214942697        3.6070215244        0.5003023327
 C         1.4449218061        2.5951153811       -0.2627725082
 C         0.3282406558        1.9569782327        0.6245954227
 C         3.4610107689        4.2195650098       -0.6010790284
 C         3.3149732794        2.8517571955        1.5721554221
 O         1.3481522012        4.4911974557        2.3593569955
 O         1.4756245227        2.4991643520       -1.4948248939
 C        -0.8357701514        1.4130850407       -0.2141058737
 C        -0.7412145044        0.0248448452       -0.5337933203
 C        -1.5198618905       -0.5461714480       -1.7754742874
 C        -0.4180722495       -1.2125406109       -2.7408002738
 C         0.6178542583       -0.2884196585       -3.3358222090
 O        -0.1095176066       -0.8146097766        0.1435461758
 O        -0.3473977046       -2.4165903595       -2.7759777971
 C        -2.5923232583       -1.5792730008       -1.2428486417
 C        -2.4024969014        0.5602537399       -2.5921879447
 C         1.7604715148       -1.1449893754       -3.8311493428
 C         2.8101115104       -1.4361142513       -2.6768083405
 C         4.3289346259       -1.3593808320       -3.0746026796
 C         5.0126079839       -1.7090176608       -1.6615868706
 C         5.3635108843       -3.1427400518       -1.1563221658
 C         4.5248472737       -2.7806453031       -3.8968042204
 C         4.8604677589       -0.2029845624       -3.8398842834
 O         2.4660843394       -1.9335714464       -1.6528593831
 O         5.2457604070       -0.7462804689       -0.9879794941
 C         5.5985000438       -3.1639368218        0.3304894337
 C         5.1392603966       -4.5306109571        1.0462435623
 C         4.1233711851       -4.4955078443        2.3838125375
 C         2.7004010685       -4.1964890463        1.7910100563
 C         1.5247950762       -5.2481560386        1.7412908127
 O         5.6300403826       -5.5906172574        0.7653414522
 O         2.5553996463       -3.0357296275        1.3562293496
 C         4.1692205332       -5.8407965313        3.1275177588
 C         4.6635292371       -3.2502450587        3.2999675915
 C         1.8087759949       -6.3929684956        0.8228727769
 C         1.5831369599       -5.9799250624       -0.5867313246
 C         0.2069343212       -6.4945809593       -1.2834129704
 C        -0.9970014946       -5.7055205885       -0.7489577377
 C        -2.4317562693       -6.3452637071       -0.7273108994
 C         0.1682068019       -6.2688761829       -2.8513871261
 C         0.1281118177       -8.0600837730       -1.1361906385
 O         2.2423490738       -5.1100529527       -1.1515943682
 O        -0.9432142983       -4.5589707211       -0.3302953649
 C        -3.3934252150       -5.5510515472        0.1605840809
 C        -3.1564503544       -5.6309632253        1.6969435569
 C        -4.2130429624       -4.6781799787        2.5950901702
 C        -3.8667418231       -3.1246890235        2.4459813935
 C        -3.1408135541       -2.3143685573        3.5256389715
 O        -2.4112958276       -6.3588199582        2.2302449508
 O        -4.3906256537       -2.5162542118        1.4952675905
 C        -5.6490112323       -4.9085309280        2.0569345400
 C        -4.0657115495       -5.1744119653        4.0298722210
 H        -5.6165527915        6.4162427130       -3.3191269899
 H        -4.1324652825        5.7826108207       -2.7002920698
 H        -4.7030578817        5.1172687220       -4.1841335983
 H        -4.4455790277        4.8121258499        0.9700686092
 H        -4.0878793041        5.1455906878       -0.7558854553
 H        -8.6268748811        5.2047326371       -1.5169032679
 H        -8.1188529994        4.1134086211       -2.7633580498
 H        -7.3778263087        5.7847148415       -2.6462824939
 H        -5.8651509982        2.6762083973       -0.2774299697
 H        -7.4401192848        3.2006806977        0.1965862096
 H        -7.2643278976        2.2881268744       -1.2688037360
 H        -4.4673721805        7.5471896986        0.0615825941
 H        -4.2847622029        6.9792149658        1.6434488277
 H         1.3430369589        8.0740008557        0.5662671134
 H         1.7754873609        7.0097539347        1.9354818852
 H        -0.3061567793        9.3511472201       -0.2089777630
 H        -2.0256401285        9.3654019834       -0.7693557623
 H        -0.8455625396        8.0934638561       -1.3017497405
 H        -2.4491611275        8.7494203505        2.6616666085
 H        -1.4272835248       10.0167772853        1.7146051010
 H        -2.9557631766        9.5940296112        1.2207396682
 H         1.8615976946        6.0187530630       -0.5423936509
 H         0.3078472658        5.4170067920       -0.0094201380
 H         0.8942275417        1.2246577806        1.1944159172
 H        -0.0222991617        2.7376724009        1.3451954449
 H         4.0348040886        4.9628376592       -0.1803543161
 H         2.9059236684        4.6178830480       -1.4381265827
 H         4.0329685140        3.4388614539       -1.1545522023
 H         3.4793785410        3.4511122227        2.5363495264
 H         2.7416505184        1.9063476940        1.8022639063
 H         4.2744457110        2.6303201837        1.1057119958
 H        -1.6987834591        1.6276856152        0.4829081501
 H        -1.0018657768        2.0222855701       -1.0845307214
 H         0.1789891257        0.2037246330       -4.2200685891
 H         0.8830864550        0.5630084434       -2.6328989583
 H        -2.8900988683       -2.1664316633       -2.1669439178
 H        -3.3304927460       -0.9515291575       -0.7804352884
 H        -2.2062922793       -2.2130978724       -0.5163238582
 H        -3.0455326638       -0.1010116441       -3.1832992779
 H        -2.9690093315        1.0182890407       -1.7817546143
 H        -1.7287599177        1.2115361396       -3.2003939782
 H         2.2413580750       -0.6602195731       -4.7085115094
 H         1.2980306458       -2.0719729617       -4.0726561140
 H         4.5613593601       -3.7548929589       -1.4147650011
 H         6.2196625094       -3.6067142352       -1.5912839821
 H         3.9940204029       -3.5057962072       -3.3855914252
 H         5.5683038226       -3.1359947725       -3.8803247290
 H         4.0884465445       -2.8218717031       -4.9225365706
 H         4.7006339162        0.7254117581       -3.2090703885
 H         5.9476655499       -0.3965393641       -4.0212318124
 H         4.3197114921       -0.0521372853       -4.7618783605
 H         6.6806509325       -3.0832258224        0.6629719782
 H         5.0214347682       -2.3514297175        0.7843401099
 H         1.3701606814       -5.5414959138        2.7670538938
 H         0.6483776335       -4.7122265979        1.4325105868
 H         3.9389823099       -6.6830372611        2.4599182813
 H         3.4523306438       -5.8718023427        4.0563091191
 H         5.1089085951       -6.0914232298        3.4923556732
 H         4.2327914785       -2.2963076394        2.8962560550
 H         4.2767368148       -3.3825720518        4.3370130209
 H         5.7559375986       -3.1883025554        3.4232126525
 H         1.1116060197       -7.2831320165        1.0101478096
 H         2.8042051915       -6.8678248803        0.9564741905
 H        -2.7938037150       -6.4107763266       -1.8061408712
 H        -2.3473596158       -7.4240447523       -0.4475063833
 H        -0.8107337677       -6.2841146123       -3.1988271549
 H         0.7006889848       -6.9850928769       -3.4682014076
 H         0.5426423788       -5.2605599769       -2.9997529441
 H         1.0454472932       -8.5123904026       -1.5833495647
 H        -0.1077916959       -8.3961218582       -0.1277744125
 H        -0.6564034497       -8.3984021514       -1.7038006854
 H        -3.5223540751       -4.4702048956       -0.0914137100
 H        -4.4502504117       -5.8091801020       -0.0610179586
 H        -3.8750320934       -1.7385256159        4.0753770989
 H        -2.5729110505       -2.9614140378        4.2106961140
 H        -2.4504333471       -1.6548157877        3.0224948103
 H        -5.7740057319       -5.9834089189        1.7902050602
 H        -5.6466017281       -4.3651027401        1.0881080118
 H        -6.4784571529       -4.4617741852        2.6445788958
 H        -4.4111272468       -4.3551379294        4.7079604586
 H        -4.7411314464       -6.0806494036        4.0537256843
 H        -3.0325144601       -5.5856520457        4.2277980184
 Na        0.8809869582       -2.7124122436       -0.3766750931
