155

 C        -6.7365170413        6.0115090031       -3.2928849059
 C        -6.4466902910        4.6762517596       -2.5801272136
 C        -6.8277083948        4.4873328194       -0.9726082975
 C        -5.6609250606        5.2724118347       -0.2872256539
 C        -4.3091260590        4.3959968438        0.1298454355
 C        -8.2024611217        5.1144524913       -0.6564062769
 C        -6.6769525570        2.9401513775       -0.5732802136
 O        -5.9652555096        3.7569879514       -3.1454287195
 O        -5.7732314830        6.4603849898       -0.1599131498
 C        -3.5502670360        5.0510795998        1.2455008102
 C        -2.3772259023        5.9016779490        0.7892903909
 C        -1.9869750136        7.1982092791        1.6671463511
 C        -1.4261707284        6.5719057568        2.9690270910
 C         0.1454090910        6.3366198125        2.8954583999
 O        -1.7538954393        5.7397343397       -0.2428782811
 O        -2.1028523112        6.3269927193        3.9960141972
 C        -1.0164688592        8.0413083805        0.7793368555
 C        -3.2520343508        8.1282881064        1.8234938085
 C         0.5707125976        5.0476041971        2.1135347668
 C        -0.0170742349        3.6535237317        2.4780118933
 C         0.8948972192        2.2521498635        2.4041891830
 C         0.2578220605        1.6651580643        1.0353113078
 C        -0.9957560297        0.9000133856        1.3423413209
 C         2.3881344867        2.5125363209        2.2907869922
 C         0.6163178436        1.5329580164        3.7632442383
 O        -1.1906250739        3.4860939276        2.7403406183
 O         0.5628156252        2.0209840234       -0.0829372314
 C        -1.7261864155        0.2938427016        0.0385991041
 C        -0.7239457681       -0.4040264816       -0.8605467261
 C        -0.8979334283       -0.4170636917       -2.4202982452
 C         0.4945856911       -0.6304085418       -3.1332515896
 C         1.5582413898        0.6396925234       -3.2048383421
 O         0.0168462883       -1.1742103617       -0.2895031588
 O         0.7746758892       -1.6278345800       -3.7590944441
 C        -1.7739600065       -1.6468560278       -2.7259568103
 C        -1.4427169150        0.8518122300       -2.9408852565
 C         2.9983382758        0.2131401281       -3.6046845560
 C         3.6681754449       -0.6883185177       -2.5054429627
 C         5.2483534908       -0.6436639554       -2.2614939397
 C         5.5377203388       -0.4286453840       -0.7148383400
 C         5.2029247151       -1.6297249669        0.0719510257
 C         5.7814757183       -1.8942016786       -2.8971459517
 C         5.8407909161        0.5240675834       -3.0644838765
 O         3.0842915861       -1.5537206968       -1.8905430327
 O         6.1740611794        0.5122509526       -0.3162196898
 C         4.0178926777       -1.5616829130        1.1196622580
 C         3.8696494527       -2.7996783639        2.0080016296
 C         2.4595277290       -3.0185141978        2.6364341526
 C         1.6949943986       -3.8981476315        1.5952910512
 C         1.8797157565       -5.4114069245        1.6112676714
 O         4.6547813617       -3.7419586318        1.9720757386
 O         0.8595977927       -3.4191349249        0.8486367734
 C         2.5749444374       -3.5837550989        4.1234917919
 C         1.5075808437       -1.7723141944        2.9224572124
 C         3.0205100952       -5.9292003174        0.6944526272
 C         2.7585975698       -5.8044724641       -0.7979904030
 C         1.9156671168       -6.9027893114       -1.5367642073
 C         0.5583824277       -6.1601949284       -1.8332306239
 C        -0.8190450245       -6.9081169710       -1.6285278758
 C         2.5388236952       -7.1705043683       -2.9461497643
 C         1.5957230096       -8.2757580984       -0.8412537490
 O         3.0061661273       -4.7576722497       -1.4025914606
 O         0.5481120699       -5.0258695373       -2.2332145778
 C        -2.0264969341       -6.0316495750       -1.6948643208
 C        -2.1118208523       -5.4658354805       -0.2237636266
 C        -3.4728692651       -4.7025584680        0.2631093949
 C        -3.1248918957       -3.1857503217        0.4978159595
 C        -2.3039627141       -2.7391699976        1.6396195452
 O        -1.1871880504       -5.6420235821        0.5725663612
 O        -3.4960973368       -2.4013035663       -0.4103993285
 C        -4.6188122857       -4.8361132535       -0.7055441263
 C        -3.8233267935       -5.4558581980        1.6118517206
 H        -6.2188615969        6.0951314268       -4.2600282953
 H        -7.7599291729        6.2025275546       -3.6078380463
 H        -6.4077851345        6.9185382473       -2.6519093856
 H        -4.5690276925        3.3433398064        0.3210288976
 H        -3.7044072917        4.4964460701       -0.7508367491
 H        -8.1924388741        6.1940610455       -0.7924116115
 H        -8.1894073162        5.0632569371        0.4113451898
 H        -9.0645852024        4.5775067091       -1.1462235220
 H        -5.7743149913        2.4542133296       -0.8949520866
 H        -6.7216232334        2.9248347617        0.5332439885
 H        -7.5384520666        2.4527692032       -0.8881764098
 H        -4.2338376714        5.5203637023        2.0285398952
 H        -3.2125702829        4.1628455242        1.8259520699
 H         0.6505805718        7.1880193116        2.3730059048
 H         0.5657394645        6.2162136606        3.8941061165
 H        -0.9192566215        8.9611916253        1.3218348640
 H        -1.5087668321        8.2351534209       -0.1831119459
 H        -0.0722639918        7.5954120638        0.4865054764
 H        -3.7766497032        8.0056193829        2.7539065424
 H        -2.8428393085        9.1234650546        1.6090192055
 H        -4.0080537288        8.0520895206        1.0023682613
 H         1.6601022517        4.9162411742        2.2381735531
 H         0.3998001403        5.1594897932        1.0318380029
 H        -0.8473105594        0.0254379018        1.9959934322
 H        -1.7585098793        1.3966969833        1.9516517733
 H         2.5724988120        3.3727690054        2.9730703772
 H         2.6361809294        2.8559522467        1.3213356031
 H         2.9677097109        1.6535888471        2.3795673978
 H         0.9503199922        0.5436518196        3.8577138361
 H         1.1344041158        2.1250707487        4.4633313652
 H        -0.4795871947        1.4479459502        3.9886113131
 H        -2.5522757068       -0.4166508830        0.3614982134
 H        -2.2185701620        0.9974233575       -0.6044902232
 H         1.1492274734        1.2683480332       -4.1160177880
 H         1.6646332433        1.3654049611       -2.4140370404
 H        -2.1894013237       -1.7051806710       -3.7519448067
 H        -2.7096058676       -1.5813614690       -2.2357331781
 H        -1.3228269217       -2.6199134759       -2.5681632567
 H        -1.2211631327        1.0069188030       -3.9993824467
 H        -2.5151889694        0.9661851415       -2.9734290428
 H        -1.0946408516        1.7659623668       -2.5495880488
 H         3.5572072672        1.0811269209       -3.9046455110
 H         3.0496149113       -0.4803169158       -4.5306586308
 H         4.8433387461       -2.5244860152       -0.5439573927
 H         6.0954921743       -1.9473986470        0.5603365837
 H         5.1264780107       -2.8052572413       -2.6948912446
 H         6.7341562620       -2.2447640206       -2.5846918533
 H         5.6573227632       -1.6870484435       -3.9749955641
 H         5.6082022448        1.4889590694       -2.5361822084
 H         6.9655750219        0.4463077212       -3.0965364699
 H         5.3805251729        0.6919127974       -4.0410778556
 H         4.0480458667       -0.7088106589        1.8326188236
 H         2.9412968514       -1.5081716137        0.6065136705
 H         1.9341488302       -5.6907380632        2.6936831675
 H         0.9385491121       -5.8676251379        1.2912216224
 H         3.3832852689       -4.2988065025        4.2495148436
 H         1.6439974524       -3.9415867874        4.4443810023
 H         2.7878129051       -2.6619763939        4.7296751731
 H         1.0010284866       -1.2521897970        2.0990070849
 H         0.7882523406       -2.0263167098        3.6180192674
 H         2.1642196510       -1.0130890406        3.4156094403
 H         3.0376210935       -6.9808389082        0.8230680988
 H         4.0128825182       -5.3551800536        0.8165299412
 H        -0.9290646154       -7.8545996645       -2.2605182207
 H        -0.9350279946       -7.3930906611       -0.6233824465
 H         2.2338235906       -8.1506469132       -3.3748838408
 H         3.6723742704       -7.1018016810       -2.9272383867
 H         2.3330181985       -6.2566338543       -3.5607944550
 H         2.4431966264       -8.8970778939       -0.8469883467
 H         1.1848304120       -8.1389446748        0.1648517512
 H         0.7545808036       -8.8313008304       -1.3491684020
 H        -2.0851480977       -5.1438774744       -2.3538813860
 H        -2.9141384104       -6.6126109633       -2.0665518971
 H        -2.7724969165       -1.9149862556        2.1399585519
 H        -2.0333262799       -3.5089322324        2.3567780071
 H        -1.2984136287       -2.4647867931        1.1950854612
 H        -4.6103076835       -5.9045261172       -0.8849990708
 H        -4.4364146294       -4.3396206095       -1.6178723888
 H        -5.6063581848       -4.4075528640       -0.2614683896
 H        -4.6031541720       -4.9035261870        2.1148859126
 H        -4.2036889576       -6.5260434737        1.4236025410
 H        -3.0716638130       -5.5632562944        2.4539320166
 Na        1.2715170204       -2.9136373762       -1.4194179516
