155

 C        -6.9970195895        5.6492253616       -3.5942634816
 C        -6.4509478399        4.6406902063       -2.5565696729
 C        -7.0720937772        4.6045604663       -1.1285892518
 C        -5.9695450452        5.1796610601       -0.0563471479
 C        -4.7322744535        4.2443230264        0.0913908475
 C        -8.4646409030        5.2978399355       -1.1044717830
 C        -7.2454500772        3.0674486243       -0.8348729650
 O        -5.4939525204        3.9496118963       -2.7859995972
 O        -6.2325026980        6.1853310859        0.5466814904
 C        -3.7276952448        4.5904161487        1.3067411976
 C        -2.4757352480        5.4869193267        0.8863300743
 C        -2.0187330023        6.7636677842        1.6763135702
 C        -1.5033446887        6.3461893351        3.0868590663
 C         0.0297137113        6.1345876437        3.3062887050
 O        -1.8478094385        5.1770595151       -0.1237918909
 O        -2.4064418061        6.2909781472        3.9365559255
 C        -0.9067838294        7.5397016516        0.8407707597
 C        -3.2340994550        7.8098895678        1.7793503697
 C         0.6618096032        4.9862148717        2.4059228982
 C        -0.0808241889        3.6504994840        2.5991379763
 C         0.7180822948        2.2661765910        2.5824737763
 C         0.4647661210        1.6535602598        1.1788294516
 C        -1.0169569939        1.1653494029        1.0154764374
 C         2.2062083086        2.4441132599        2.8610765466
 C         0.0264480216        1.3886899117        3.7380405235
 O        -1.3132396412        3.6895564346        2.5025800058
 O         1.3101609657        1.5308474550        0.2365882320
 C        -1.6078927021        0.7578542650       -0.3852005307
 C        -0.7871884767       -0.4154516556       -1.0589460629
 C        -0.7708774265       -0.4194753009       -2.6889066540
 C         0.7160422576       -0.3913123723       -3.2241560129
 C         1.5078099936        0.8537545288       -2.9966447335
 O        -0.1349172935       -1.2508557298       -0.4932255924
 O         1.2042057713       -1.3656083023       -3.8119202677
 C        -1.3568163698       -1.7997431878       -3.0520304350
 C        -1.4899641982        0.6177202210       -3.4230597525
 C         3.0562833624        0.7483431054       -3.1013869421
 C         3.6578034494       -0.2149623316       -1.9676365934
 C         5.2344331679       -0.4602327517       -1.9198911954
 C         5.5854486351       -0.2452944545       -0.3339426800
 C         5.3917714812       -1.4680513791        0.5813233384
 C         5.3091049487       -1.9124694379       -2.4685621670
 C         6.0644579490        0.4968311501       -2.7858095709
 O         2.9282851860       -0.6844783974       -1.1272149149
 O         5.8146265258        0.8580381333        0.0989240828
 C         4.2170279708       -1.4713488880        1.5376710689
 C         3.9401376109       -2.7509669877        2.3177671052
 C         2.4727025016       -3.1217844477        2.6052129821
 C         2.0181878183       -4.0396184756        1.4787602425
 C         2.1785933066       -5.6039270286        1.4115330246
 O         4.8110691667       -3.5267710789        2.7171545915
 O         1.4136741227       -3.5622785285        0.5535869535
 C         2.3409242599       -3.9433485156        3.9755336196
 C         1.5982212812       -1.7153804018        2.5925324484
 C         3.3027627152       -5.9397986582        0.4179269378
 C         2.8907216809       -5.5412386753       -0.9479423046
 C         2.0243082699       -6.5693961135       -1.7881253082
 C         0.6032737107       -5.8866377248       -1.9180422960
 C        -0.6008360120       -6.9162634844       -1.7970679667
 C         2.6342931146       -6.5773690495       -3.2088626299
 C         2.0394528049       -7.9347116514       -1.1737613534
 O         3.3197546651       -4.5092737122       -1.4200198931
 O         0.4772902324       -4.7019563164       -2.1884276964
 C        -1.9983134142       -6.2733199929       -1.8813977144
 C        -2.2567126056       -5.5805662201       -0.5694349691
 C        -3.5946160474       -4.9812884886       -0.0968267142
 C        -3.3964935859       -3.4159622017        0.2209231537
 C        -2.2626542322       -3.0554730740        1.1003308377
 O        -1.4195687612       -5.4992148945        0.3219526118
 O        -4.1079665058       -2.5718957268       -0.3690162931
 C        -4.7192749179       -5.1441910863       -1.1931017724
 C        -3.9624831475       -5.6765194629        1.2733194327
 H        -6.5226096961        5.5599374474       -4.5597246085
 H        -8.0717939117        5.3894324534       -3.7992943503
 H        -7.0810472212        6.6710120594       -3.3605522034
 H        -5.1404140123        3.2431513153        0.1866458341
 H        -4.0992075195        4.0884995846       -0.8270678307
 H        -8.2833943209        6.3761477546       -0.9433954380
 H        -9.1570007277        4.8424858620       -0.3774949229
 H        -8.9993424112        5.0875819798       -1.9877950819
 H        -6.3537481003        2.5500132235       -1.1766630877
 H        -7.3302487967        3.0044289595        0.3338580123
 H        -8.0748339172        2.5809398213       -1.3410836672
 H        -4.3180605419        5.0113744205        2.0564128188
 H        -3.3862997711        3.5771588271        1.6042345008
 H         0.5711063914        7.0284544263        3.0234035194
 H         0.2565317228        5.9601196321        4.3606754254
 H        -0.8174711686        8.5929109844        1.0297554142
 H        -1.2924331432        7.4440520639       -0.1884643704
 H         0.0832945820        7.1328375719        0.8793816611
 H        -3.9213824151        7.5272710250        2.6112417503
 H        -2.8090007849        8.7178596915        2.1708488180
 H        -3.7348265039        7.8959986812        0.8820673333
 H         1.7289515885        4.8984747715        2.4445542483
 H         0.4687919261        5.1983188346        1.3246579051
 H        -1.3340744371        0.4020976576        1.7225204329
 H        -1.6335242146        1.9663902351        1.4042640450
 H         2.3662278202        3.0028395713        3.7200241174
 H         2.6258178952        2.8801368238        2.0021071027
 H         2.6289874597        1.5050207224        3.1720217694
 H         0.5939476905        0.4502366266        3.8062960511
 H         0.0484857398        1.8869749561        4.7260534134
 H        -1.0637322955        1.2800132711        3.5608809925
 H        -2.6455207578        0.5013012986       -0.2516183449
 H        -1.5049416771        1.5561590376       -1.1538142599
 H         1.1160296450        1.5120707370       -3.7524919220
 H         1.2375515837        1.2859147034       -1.9646526980
 H        -1.3101071748       -1.9330772698       -4.0629769190
 H        -2.3271670282       -2.1380251801       -2.6646534999
 H        -0.7428534590       -2.6953988486       -2.6653847712
 H        -1.3108208862        0.6714269744       -4.4964115102
 H        -2.5545113581        0.7502315831       -3.3584185064
 H        -1.2241886939        1.6560238303       -3.1060690633
 H         3.5356526336        1.7379410323       -3.0637968198
 H         3.2788006663        0.3649317869       -4.0420051909
 H         5.3537050694       -2.4375857627        0.0561436958
 H         6.3865259672       -1.5403442083        1.1441164039
 H         4.6044622902       -2.5781516888       -1.9039793634
 H         6.3177644000       -2.2747503881       -2.3412999325
 H         5.1505223917       -1.9725272201       -3.5861988424
 H         6.4190362358        1.3656923392       -2.2317693296
 H         6.9324638186       -0.0493686807       -3.1640639298
 H         5.4023079354        0.8860892480       -3.6896577586
 H         4.3695640066       -0.6040761383        2.2115738918
 H         3.3270375698       -1.2692621572        0.8923968709
 H         2.3514030524       -6.1868803065        2.3259618382
 H         1.1331709992       -5.8145568590        1.1043219469
 H         2.9987247726       -4.8198710018        3.9127769799
 H         1.3332576350       -4.2825611486        4.1319590387
 H         2.6091972828       -3.2906316146        4.8516883379
 H         1.6278550002       -1.1366817739        1.6586168771
 H         0.5223979925       -1.8406640259        2.8462763513
 H         2.0412285140       -1.1075273556        3.3407601900
 H         3.6383534344       -7.0342252187        0.5044497888
 H         4.1989717045       -5.3244655529        0.7161974782
 H        -0.4471627919       -7.7593011918       -2.4355749485
 H        -0.5550538015       -7.3567764631       -0.7595459740
 H         1.9713951854       -7.1670556841       -3.9471516407
 H         3.6215839750       -7.0281947163       -3.1522735571
 H         2.6865967199       -5.5591662530       -3.6037654823
 H         3.1551222774       -8.1389733569       -1.3123478930
 H         1.8957926084       -8.0315640155       -0.1551998250
 H         1.5127758262       -8.7259954723       -1.7805170641
 H        -2.0988942244       -5.4787922920       -2.6524446315
 H        -2.7992627904       -7.0235539085       -2.0280702229
 H        -2.1370777950       -1.9810927593        1.2799919532
 H        -2.4170349443       -3.4332032487        2.1310948134
 H        -1.3430489683       -3.5366250838        0.7331242415
 H        -4.8073054798       -6.2024195873       -1.5437149676
 H        -4.2759722855       -4.5240944010       -1.9817571844
 H        -5.6958753655       -4.7393115389       -0.8030907660
 H        -4.8406756307       -5.2896853817        1.8619733404
 H        -4.2963146509       -6.7031150391        0.9959100682
 H        -3.0779719529       -5.6107028679        1.9985152687
 Na        1.8030784935       -2.7154914010       -1.6605368503
