155

 C        -6.1874246775        5.3278116914       -3.6198514727
 C        -6.1528303221        4.3275923501       -2.4154869709
 C        -7.2685113578        4.5130261171       -1.1419356344
 C        -6.2842632348        4.8911252967        0.0557136640
 C        -5.6004088478        3.7709827289        0.7013280431
 C        -8.3129723915        5.6288831120       -1.2497110771
 C        -7.9969540847        3.1172654994       -1.1833572868
 O        -5.3122906116        3.5072593811       -2.3084088198
 O        -6.0090426815        6.0988238852        0.3111082994
 C        -4.5138835562        4.2024134437        1.6460607521
 C        -3.3074265391        4.8192682158        0.9108901952
 C        -2.5000365162        6.1864261796        1.4034540880
 C        -2.1045679737        6.0363187014        2.9058607450
 C        -0.5823534854        5.7808632406        3.1859714231
 O        -2.8496715389        4.1754149624       -0.0260261583
 O        -2.8051137614        6.3184294831        3.8384340829
 C        -1.3619208171        6.3082048203        0.3497402739
 C        -3.4152653049        7.4889181190        1.2862305256
 C         0.0201873805        4.4140522966        2.6188265913
 C        -0.7339354975        3.2036515704        3.0663856316
 C        -0.0810705136        1.7428708534        2.5377693612
 C        -0.5491408708        1.8371125572        1.0625737087
 C        -1.9494454404        1.2874518388        0.5345992169
 C         1.4329780952        1.6414843977        2.6410019766
 C        -0.7864954127        0.5374047367        3.2602077474
 O        -1.8199958009        3.0723720665        3.5535312184
 O         0.2179183093        2.3578782189        0.2811834471
 C        -1.8673050766        1.2686144057       -1.0514561684
 C        -0.6917406806        0.4442084602       -1.4524096322
 C        -0.2372112136        0.4620696749       -2.9358816823
 C         1.2474210772        0.1499638576       -3.0538624123
 C         2.1990223137        1.3554210775       -2.6357730982
 O        -0.1040471733       -0.3166274663       -0.6294997103
 O         1.6280211846       -0.9580569828       -3.3865899936
 C        -1.0677818490       -0.6444999494       -3.5229694725
 C        -0.5460503618        1.7798135272       -3.5152745176
 C         3.7356199774        1.0193467012       -2.5363625115
 C         4.1409362324        0.1150897284       -1.3923588319
 C         5.5736254971        0.0378426794       -0.8818115989
 C         5.5094820057        0.1864493248        0.7743510239
 C         5.6832920994       -1.0605412576        1.7000797098
 C         6.1381734863       -1.4362235880       -1.1850430075
 C         6.5630299974        1.1809808781       -1.3019695069
 O         3.3981535932       -0.7447152475       -0.8960187121
 O         5.2708709262        1.3073080984        1.1868184160
 C         4.3004975758       -1.7990447327        1.6252502024
 C         4.2493589342       -3.1708920975        2.4586429260
 C         2.8928629039       -3.7708053379        3.0508419893
 C         2.1349644090       -3.9986263216        1.7217850864
 C         2.1113068435       -5.2715525817        1.0276039983
 O         5.1849804421       -3.9695640718        2.4615429277
 O         1.7249856575       -3.0177842200        1.1451983443
 C         3.2539026375       -5.1376506845        3.7319908159
 C         2.0947170174       -2.7758730767        3.9543490354
 C         3.3961320798       -5.5837297185        0.0662131187
 C         3.2045879427       -4.8091765127       -1.2621785287
 C         2.5016735587       -5.4719645539       -2.6211352898
 C         0.9244655917       -5.4799631999       -2.1432391386
 C         0.0210207637       -6.6913609383       -2.1934816061
 C         2.6178684609       -4.5383419462       -3.8570400093
 C         3.0415956691       -6.9532976062       -2.7586177646
 O         3.4559984381       -3.6304277598       -1.2580129806
 O         0.3577197453       -4.4277318694       -1.8933811539
 C        -1.5301485807       -6.4112991523       -2.3332397992
 C        -2.1879246797       -6.4341429399       -0.9986252746
 C        -3.5256831659       -5.6209876752       -0.7133009004
 C        -3.0536011244       -4.0221822775       -0.6920606355
 C        -2.5286102733       -3.4497981845        0.6257190637
 O        -1.7214549163       -7.1001897980       -0.0451233459
 O        -2.8894506001       -3.5184533430       -1.7792913656
 C        -4.6092814733       -5.7923348236       -1.8523711507
 C        -4.0104360482       -5.9450672144        0.7041148474
 H        -5.3121227565        5.3177363992       -4.2045607625
 H        -6.9809321545        5.1038508348       -4.3380001545
 H        -6.4386493768        6.3962474644       -3.2851480704
 H        -6.2130977270        3.0786458527        1.3260862903
 H        -5.1770939213        3.2541548084       -0.1638259964
 H        -7.8900828374        6.6389327235       -1.2602987756
 H        -9.1986769149        5.4982865957       -0.6334729739
 H        -8.7669113053        5.5892801388       -2.2023315006
 H        -7.4070820996        2.2818378838       -1.1013618264
 H        -8.7277174226        3.0957005391       -0.3242141237
 H        -8.5467710187        3.0971190715       -2.0706234318
 H        -4.8574237734        4.8244148516        2.3932104951
 H        -4.0326117969        3.3979567456        2.2102657499
 H        -0.0474850710        6.5873883102        2.6688829677
 H        -0.4007676406        5.9041959219        4.2877262409
 H        -1.4830864206        7.1223281926       -0.3751555427
 H        -1.5057769755        5.4890330157       -0.3566387064
 H        -0.3045631273        6.3219636290        0.5950277786
 H        -2.9165539351        8.4870821730        0.9869817143
 H        -4.1843918768        7.3125416283        0.5401413436
 H        -3.9078288497        7.5694944322        2.2270539795
 H         1.1254394043        4.3663125321        2.9067816122
 H        -0.0653516592        4.2963590294        1.5602457088
 H        -2.1812286354        0.3750433871        1.0429833688
 H        -2.7004879639        2.1058384412        0.7751267016
 H         1.6868643416        2.0478176276        3.6032204290
 H         1.9424308354        2.2820348596        1.9323556164
 H         1.6659973554        0.5490628022        2.8193942105
 H        -0.5404159042       -0.3589164080        2.7875432447
 H        -0.6151005151        0.4718040143        4.3198681332
 H        -1.8682694206        0.7427624978        3.1551119795
 H        -2.8207215024        0.8344445821       -1.4047366087
 H        -1.8288065034        2.2882529032       -1.4527447912
 H         2.0992826932        2.1843674364       -3.2569752628
 H         1.8155602664        1.7412500635       -1.6270946180
 H        -0.5324736002       -0.7390130045       -4.4562336961
 H        -2.1024447059       -0.5486189876       -3.7688597658
 H        -0.8468563844       -1.5820404747       -2.9904520230
 H        -0.1284999764        1.8079094501       -4.4974684499
 H        -1.5638513247        2.0380596824       -3.5028032896
 H         0.0428707286        2.5696259483       -3.0154566247
 H         4.2441052934        1.9884344020       -2.3571614940
 H         3.9979563134        0.6668367781       -3.5473325695
 H         6.5484011612       -1.7747498671        1.5438877643
 H         5.9299507859       -0.7471920001        2.7827763245
 H         5.3298029331       -2.1738497267       -0.9923471945
 H         6.9509957711       -1.5880239743       -0.5111342646
 H         6.5883268748       -1.5603082674       -2.1678713614
 H         6.1384037103        2.1434179359       -1.0516915088
 H         7.4734468237        0.9522224051       -0.8605208047
 H         6.5451579097        1.2801493489       -2.4394756365
 H         3.6048562179       -1.0905188950        2.0367878416
 H         3.9928673389       -2.1047591797        0.6804430805
 H         1.9359576943       -6.1079651113        1.7125430205
 H         1.2308958841       -5.2825282773        0.2799426710
 H         3.6285530901       -5.9365186030        3.1212750438
 H         2.3375529821       -5.6138039471        4.0464026151
 H         3.8988384251       -5.0145472651        4.6086401241
 H         2.0115370575       -1.8977747298        3.3717706332
 H         1.0977989046       -3.1900283044        4.3038991439
 H         2.7221315970       -2.5214336758        4.7475570131
 H         3.3343637410       -6.6730992583       -0.2207597495
 H         4.3094877935       -5.2776586915        0.5737393348
 H         0.1323871222       -7.4459565203       -3.0079143952
 H         0.2722719261       -7.2372710950       -1.2709644435
 H         1.7176485254       -4.7183530654       -4.5287546080
 H         3.4144540156       -4.6896033727       -4.5762150111
 H         2.6984853344       -3.5015162887       -3.5252195647
 H         4.1042570155       -6.9707753936       -3.1292390509
 H         2.9759406009       -7.5132115403       -1.8801295573
 H         2.3613913623       -7.5019087295       -3.4639747824
 H        -1.8171315823       -5.5466990321       -3.0361323426
 H        -1.9644136258       -7.2771488361       -2.8379768238
 H        -1.7385369591       -4.0974618340        1.0134855804
 H        -2.1666079288       -2.4504822097        0.4367591376
 H        -3.2333964331       -3.3899720281        1.4009071880
 H        -4.4979625377       -6.5243406010       -2.6354684450
 H        -4.7240297828       -4.8156613338       -2.2651489433
 H        -5.6515660825       -6.0466041805       -1.3702203479
 H        -4.8100828904       -5.3389116227        0.9971451615
 H        -4.4276573787       -6.8996688594        0.5782963753
 H        -3.1753334250       -5.9101679621        1.4036689554
 Na        1.3284908225       -2.0996894179       -1.2926139225
