155

 C        -6.1044595612        5.4951128357       -3.4760387258
 C        -6.1922342503        4.2905654343       -2.5109017469
 C        -7.1178868389        4.4620513761       -1.1858028326
 C        -6.1554787706        4.7043573375       -0.0144915981
 C        -5.6062020327        3.5312608764        0.8929725675
 C        -7.9868370734        5.6811482529       -1.4478983306
 C        -8.0159166369        3.2057500584       -0.8530428043
 O        -5.4716774042        3.2618728945       -2.4723268179
 O        -5.8972968007        5.8389735494        0.2138902494
 C        -4.6612977973        4.3340600856        1.8392772875
 C        -3.4161738154        4.8799252764        0.9646641985
 C        -2.5589087166        6.1256435491        1.4016324420
 C        -2.0823500912        5.9417581922        2.8226839740
 C        -0.7058869082        5.5753498546        3.2878319133
 O        -3.2323894990        4.3250927106       -0.0965678247
 O        -2.9628870560        6.2658673117        3.6493174692
 C        -1.3806067566        6.2695794076        0.4090888184
 C        -3.5117219083        7.3831405970        1.2301316209
 C        -0.0472396698        4.3996830029        2.6664896528
 C        -0.8381654851        3.1441516635        3.0936421254
 C        -0.3566673754        1.7359546481        2.4967409176
 C        -0.7156639632        1.8542133610        1.0346271319
 C        -1.9719541886        1.1972799204        0.5268125873
 C         1.1937454549        1.6221949749        2.5806275568
 C        -1.0382591268        0.6223660903        3.2661974562
 O        -1.8910601152        3.1875410019        3.7339817022
 O        -0.0120560954        2.5107917175        0.2739560539
 C        -1.8586447962        1.1086978298       -0.9800800292
 C        -0.6329786980        0.3689560597       -1.4319914341
 C        -0.1383824267        0.5196077465       -2.9280129580
 C         1.4112604394        0.1418280936       -3.0361014383
 C         2.2841147088        1.2689275231       -2.5088065986
 O        -0.1107759993       -0.4722420054       -0.8104376997
 O         1.8273487138       -0.9546032724       -3.3399654842
 C        -0.9905277324       -0.3914336673       -3.7761014007
 C        -0.4547831948        1.9224737218       -3.4428917849
 C         3.7890857723        0.9956591866       -2.3802757654
 C         4.0541328823        0.0170808756       -1.2380932091
 C         5.5108645257        0.0174855310       -0.6718767610
 C         5.4155306025        0.2087325822        0.9381657723
 C         5.5866302785       -1.0266474022        1.9349942037
 C         6.2528768477       -1.2505920700       -1.1046567236
 C         6.4152801969        1.2056163529       -1.1974051162
 O         3.2209779965       -0.7733603226       -0.8133088829
 O         5.1555547545        1.3301321075        1.3104298350
 C         4.2796718973       -1.8475008330        1.8686872593
 C         4.4291712184       -3.3007474672        2.3958884906
 C         3.0320635252       -3.8505939994        3.0060107022
 C         2.1657205168       -3.8881510218        1.7013183838
 C         1.9505262654       -5.1740306044        0.9211758157
 O         5.4536623206       -3.9321888854        2.3240159131
 O         1.5965062753       -2.9032881979        1.1954542806
 C         3.1371494768       -5.1969127438        3.6972985987
 C         2.4428588278       -2.8806159186        3.9529658315
 C         3.0297523424       -5.5406757577       -0.0080695239
 C         3.0639293820       -4.6882041093       -1.2793491891
 C         2.4185600404       -5.3103203061       -2.5487761964
 C         0.9143882029       -5.3182125098       -2.2598642997
 C         0.1007232121       -6.5487314738       -2.3901783632
 C         2.6392742487       -4.2507545277       -3.7150365365
 C         3.0911364589       -6.5926100712       -2.9519889165
 O         3.7485166094       -3.6802787840       -1.3343455239
 O         0.4044777263       -4.2328614668       -2.0161410031
 C        -1.4194109953       -6.2696605280       -2.4140929530
 C        -2.0996722595       -6.5027264635       -1.0427074083
 C        -3.2850570617       -5.6028422642       -0.7536220561
 C        -2.8903365786       -4.0860405989       -0.8326371711
 C        -2.5728598759       -3.2539757988        0.4470252451
 O        -1.7057118166       -7.4220706232       -0.3037213601
 O        -2.8552587502       -3.5482951222       -1.9381631188
 C        -4.3932763847       -5.8887794824       -1.7888537247
 C        -3.8661276539       -6.0398798342        0.6123080077
 H        -5.1428839232        5.4160211977       -3.9832173230
 H        -6.8774516746        5.5549748392       -4.2761408655
 H        -6.1130468285        6.3977081828       -3.0235585537
 H        -6.3995959567        3.0676629753        1.4478351562
 H        -4.9147311087        2.7708952696        0.4765367320
 H        -7.3623966026        6.5275883620       -1.5444818089
 H        -8.6345740329        5.7928230311       -0.6135271786
 H        -8.6788087757        5.7418755104       -2.3018189290
 H        -7.4208226304        2.2319112188       -0.8930789941
 H        -8.5395389361        3.2961978594        0.0714693737
 H        -8.8217876904        3.0958426145       -1.6720509362
 H        -5.0224231355        5.2786045328        2.4379472501
 H        -4.1427986190        3.8382893683        2.6744369842
 H        -0.0207637974        6.4188571584        3.1841344604
 H        -0.8631212691        5.3586667491        4.3131454548
 H        -1.6908643361        6.1665371532       -0.6302301941
 H        -0.5567960605        5.5740146479        0.4110965160
 H        -0.9293464316        7.2722454397        0.4873924000
 H        -2.9090324208        8.1715801142        0.8802230699
 H        -4.1946918357        7.2403803835        0.3873440456
 H        -4.0347702489        7.7294801034        2.1702989399
 H         0.9399272104        4.3745658864        3.0567471496
 H         0.0045426502        4.4864688388        1.5476662106
 H        -1.8336358526        0.1639429668        0.9492657336
 H        -2.8208891005        1.7362057025        0.8866386596
 H         1.6802229392        1.9707777803        3.4778213249
 H         1.4792196815        2.2254763940        1.7205088247
 H         1.4684589233        0.6347563832        2.5290519117
 H        -0.9698370067       -0.3859123956        2.7445618087
 H        -0.4830676821        0.4563484827        4.2161125058
 H        -1.9824599990        0.9036661089        3.6544211498
 H        -2.7235550912        0.5481698077       -1.3463182190
 H        -1.9612365890        2.0905917412       -1.4363970574
 H         2.1284287860        2.2547132229       -3.0788083315
 H         1.8957836480        1.5117866259       -1.5764858967
 H        -0.9204336181       -0.1325250494       -4.8280724936
 H        -2.0411504272       -0.1631496387       -3.4492567422
 H        -0.8896998370       -1.4698113397       -3.5198938252
 H         0.1750615846        2.0193783839       -4.3766131249
 H        -1.5850904524        2.0375334827       -3.6164010398
 H        -0.1325398418        2.7665232836       -2.8083044693
 H         4.2872459784        1.9354606399       -2.3836574464
 H         4.0956107120        0.4589099331       -3.2661817743
 H         6.4038130869       -1.6057713534        1.6813976772
 H         5.8138696278       -0.6715496255        2.8938677227
 H         5.8200255265       -2.1369512181       -0.6747968439
 H         7.3771621805       -1.1182420634       -0.9945310062
 H         6.1762392531       -1.3372564139       -2.2011839106
 H         5.9804137324        2.2057545911       -1.1219331193
 H         7.3905452182        0.9940472964       -0.6482213576
 H         6.5728338521        1.0993059734       -2.2319710471
 H         3.4943582927       -1.2686700099        2.5029246303
 H         3.8146836724       -1.9142709130        0.8464440977
 H         1.7490200368       -6.0856347015        1.5014151609
 H         1.0652876594       -5.0467429489        0.3740513479
 H         3.8834583494       -5.7868817484        3.1486002698
 H         2.3087898169       -5.9372194876        3.7686428500
 H         3.5810209963       -5.0675230273        4.6565112618
 H         2.1589839481       -1.9921535915        3.3796480733
 H         1.5700849844       -3.3394504187        4.2929090549
 H         3.0900560437       -2.6387069625        4.8330859877
 H         2.9413511432       -6.5749458810       -0.2472118031
 H         3.9588326115       -5.4212815717        0.5277401862
 H         0.3328151545       -7.1041443802       -3.2689346476
 H         0.2263775282       -7.3133739794       -1.6159388440
 H         1.8528328055       -4.2449754208       -4.4632148338
 H         3.4708681267       -4.6842441332       -4.3315371017
 H         3.0019252681       -3.2244388264       -3.4496824894
 H         4.1829183125       -6.5030656744       -2.8543498285
 H         2.7688756464       -7.4149293451       -2.2421371521
 H         2.8028207126       -6.8838857049       -3.9177600668
 H        -1.7029838242       -5.3478441871       -2.7928069054
 H        -1.8996842532       -6.9224513126       -3.1529140582
 H        -1.4730844076       -3.2966019230        0.5555042213
 H        -2.8735210831       -2.2138427247        0.3537151134
 H        -2.9539371251       -3.6326619157        1.4247628714
 H        -4.2272483856       -6.8752371849       -2.2854221254
 H        -4.5274561513       -5.0935941871       -2.5948974736
 H        -5.3196976249       -5.9674919899       -1.2709731548
 H        -4.7483240230       -5.3178301264        0.7343196170
 H        -4.2565115866       -7.0955317649        0.6750085958
 H        -3.1159315744       -5.7206207110        1.3323600388
 Na        1.5258386243       -2.4326336381       -1.0885874303
