155

 C        -4.9856811166        4.0705584555       -2.8912156006
 C        -6.2344426585        3.3389767423       -2.4802010473
 C        -7.2859669073        4.0088339502       -1.3791550761
 C        -6.5828148840        4.8362612200       -0.1885074434
 C        -5.8434834650        3.9372184557        0.9946587468
 C        -7.9843841471        5.1063899223       -2.3478151282
 C        -8.2435669134        2.9401007323       -0.8034651558
 O        -6.4860050889        2.2709855453       -3.0767484098
 O        -6.6599826456        5.9989763606       -0.2102400461
 C        -4.9109127118        4.7579598516        1.9225061106
 C        -3.4938693818        5.0013092950        1.3315423708
 C        -2.6454747938        6.2627745205        1.5635116270
 C        -2.0572442629        6.1442783456        3.0043997994
 C        -0.7744459185        5.4386024325        3.4795560017
 O        -2.9787086870        4.1635761902        0.6192365542
 O        -2.7458956960        6.6637886722        3.9088814760
 C        -1.5449864326        6.4617303759        0.4903432543
 C        -3.4885826988        7.6046532538        1.5781050955
 C        -0.4907967720        4.0338416019        2.9926178032
 C        -1.5051101426        2.9342917415        2.9849591243
 C        -0.9304429939        1.3534065875        2.5300267590
 C        -0.9637277085        1.4022411917        1.0360729506
 C        -2.2547148669        0.8836348093        0.3519077080
 C         0.4971610523        1.0606762225        3.0346666526
 C        -1.8909577917        0.3268475478        3.1911421816
 O        -2.7449553890        3.0674543572        3.1226023921
 O        -0.0002833036        1.7052031054        0.2922638035
 C        -2.1720079919        0.8821682131       -1.1324592554
 C        -0.8117952888        0.3588947561       -1.5120476828
 C        -0.1968035396        0.7833588549       -2.7870706282
 C         1.3666344704        0.4828700499       -2.5395364149
 C         2.0834186320        1.7173445698       -1.9478842586
 O        -0.3331978186       -0.5328947014       -0.7992338774
 O         1.9104668872       -0.5276356199       -2.7920995180
 C        -0.5040616791       -0.0861439021       -4.0968698946
 C        -0.5388593138        2.2572413838       -3.0070295024
 C         3.5716471245        1.4231050508       -1.7273877546
 C         3.9148796434        0.3154180780       -0.6257166996
 C         5.3530800681        0.2397646737       -0.0149515901
 C         5.3182400406        0.2255652392        1.5511554805
 C         5.5667034967       -1.0430726698        2.3249627493
 C         5.8631220639       -1.1273804847       -0.6330320784
 C         6.3426101696        1.3607300874       -0.3398249177
 O         3.1441934181       -0.5052379606       -0.2544913495
 O         5.2955532672        1.3025355396        2.1868971564
 C         4.2880794371       -1.8215116997        2.5070913756
 C         4.4470512756       -3.2998063029        2.5183621304
 C         3.1716160251       -4.1954119347        2.8391103573
 C         2.2246385576       -4.0914039949        1.5795973655
 C         1.7978552701       -5.2533283164        0.7873248528
 O         5.5771220884       -3.7951654851        2.5014864452
 O         1.6277372579       -3.0496056465        1.3185513808
 C         3.7092662211       -5.5979342570        3.1372205918
 C         2.5286937939       -3.6210274862        4.2921620160
 C         2.7966600247       -5.7999997398       -0.2801576560
 C         3.0825305034       -4.6915193765       -1.2387809176
 C         2.7912940164       -4.8456244997       -2.7998878906
 C         1.2394616455       -4.6310294702       -3.0381372276
 C         0.4445960225       -5.6250009062       -3.9810144654
 C         3.5474092231       -3.9307381644       -3.7569794587
 C         3.1065466062       -6.2149684560       -3.2459948881
 O         3.5702294352       -3.6186584025       -0.8461745640
 O         0.7310032678       -3.6504340111       -2.5645029723
 C        -1.0132976333       -5.8742104542       -3.4937601738
 C        -1.1186665989       -5.9685433404       -1.9904991483
 C        -2.5565687185       -5.6870861888       -1.4132254112
 C        -2.8467729381       -4.1133855744       -1.2350440331
 C        -2.4024663328       -3.3652007803       -0.0424824736
 O        -0.1951904398       -6.0850408193       -1.2559038048
 O        -3.5356608974       -3.5976429004       -2.1396811880
 C        -3.7717045399       -6.3226571557       -2.1751462611
 C        -2.6121115488       -6.2454405710        0.0501471821
 H        -4.1522098875        3.3893899351       -3.0797187265
 H        -5.1596906116        4.6015294645       -3.9130629606
 H        -4.6081963616        4.7828715085       -2.2219046116
 H        -6.6198085444        3.5328167576        1.7055270043
 H        -5.3807438572        3.0512265945        0.5029817021
 H        -7.2446038103        5.8348072150       -2.6348579081
 H        -8.7670409063        5.6631735465       -1.8345635535
 H        -8.4772790437        4.6288864160       -3.1899679281
 H        -7.6336093568        2.3863904496        0.0206432160
 H        -9.0542287557        3.3192033297       -0.2551289132
 H        -8.5633101119        2.1957841545       -1.5800402422
 H        -5.3475086227        5.7614062220        2.1365183514
 H        -4.6450223458        4.3140588398        2.8654830164
 H         0.1066344323        5.9630693133        3.1282595925
 H        -0.7774935777        5.6132127782        4.5416343722
 H        -2.0539855419        6.5996040037       -0.4528853456
 H        -0.8874420809        5.5339362603        0.3446022064
 H        -0.8497264256        7.2915447626        0.7052038177
 H        -2.9473881183        8.3174185397        2.1125055488
 H        -3.7425924712        7.9825521104        0.5472600635
 H        -4.5195885514        7.4203843423        2.0288300239
 H         0.5227227747        3.6533838969        3.3098168675
 H        -0.2785519398        4.1602376052        1.9594521798
 H        -2.3505504625       -0.1584622071        0.7027142623
 H        -3.1668272546        1.4348332111        0.7193186326
 H         0.6086643021        1.2559376078        4.1201437267
 H         1.1550385366        1.7781931756        2.5709456044
 H         0.7743769390        0.0639977153        2.7495781446
 H        -1.6080486822       -0.7349936094        2.9767135585
 H        -1.9845324320        0.4857702064        4.2518941211
 H        -2.8305986578        0.2106946218        2.7261573189
 H        -3.0087667628        0.3555026994       -1.6055002279
 H        -2.3018228002        1.9004806827       -1.5075194414
 H         1.9641487605        2.5446241270       -2.6580419247
 H         1.7310355295        2.0519337420       -0.9073875286
 H         0.1200988828        0.3710430260       -4.9219310243
 H        -1.5991301895       -0.0902689973       -4.3239403744
 H        -0.0313334744       -1.0346503020       -3.8601392078
 H         0.0628479167        2.6867596844       -3.8555228816
 H        -1.5950587021        2.2021088168       -3.4290126826
 H        -0.4565374053        2.6872732540       -2.0167071794
 H         4.0549771002        2.3820463302       -1.5728556675
 H         4.0142524378        1.1307602952       -2.6548976294
 H         6.3360438231       -1.7119044137        1.8915157805
 H         5.9668121749       -0.7099802593        3.3617518763
 H         5.3450435533       -2.0230925357       -0.2967999438
 H         6.9060473017       -1.3399206011       -0.4637254892
 H         5.8017693883       -0.9248482207       -1.7431414832
 H         6.1507018902        2.3358764022        0.1420797510
 H         7.3537575484        1.1354740989        0.1580102922
 H         6.5567365020        1.4034329205       -1.3788884700
 H         3.6565623820       -1.6263432364        3.3456947195
 H         3.5751489083       -1.6130424145        1.5773259922
 H         1.6436117389       -6.0181089893        1.4991143520
 H         0.9533711252       -4.8861927888        0.3407723898
 H         3.5917018760       -6.3751590455        2.3459598026
 H         3.1815815971       -6.0129656892        3.9690706718
 H         4.7757979315       -5.6712686999        3.4830757236
 H         1.9558764121       -2.6743945941        4.2204023842
 H         1.9209458021       -4.3897215894        4.5521274413
 H         3.3184354981       -3.4288476531        5.0290036930
 H         2.5022875971       -6.7066237926       -0.7308969051
 H         3.8225611308       -5.9507642893        0.1623795110
 H         0.4718571545       -5.1969512275       -4.9734149978
 H         0.8069124313       -6.6554675172       -4.1052997314
 H         3.0346516662       -3.9694655422       -4.7188327761
 H         4.6591805710       -4.2051550551       -3.8270445691
 H         3.4264789845       -2.8741415636       -3.3416602265
 H         4.1728498197       -6.2744979393       -3.2352854032
 H         2.6756997160       -7.0943761603       -2.6854797519
 H         2.8308279129       -6.2578684019       -4.2672820335
 H        -1.6222485950       -5.0223818687       -3.7627734902
 H        -1.3700127474       -6.7053166580       -4.0781938484
 H        -3.0439159024       -2.5530059083       -0.0454693927
 H        -2.3319338938       -3.8182294889        0.9748538331
 H        -1.3779319186       -2.9716586735       -0.2038510095
 H        -3.6345294733       -7.3752267596       -2.2949440547
 H        -3.9204472650       -5.8875724028       -3.1894597489
 H        -4.7277294600       -6.2841076556       -1.7354262475
 H        -3.5171867617       -5.8678272150        0.5738528685
 H        -2.7753622898       -7.3558199499       -0.1535945485
 H        -1.6390345332       -6.0221422188        0.4904027650
 Na        1.5472918337       -2.2930018525       -0.8778920959
