155

 C        -4.9256533116        3.8796005660       -2.7327089516
 C        -6.2282305972        3.1048961645       -2.3539438639
 C        -7.2370891531        3.9907796769       -1.5008921180
 C        -6.6274625072        4.8060335674       -0.2681863931
 C        -5.8963094442        3.9146696739        0.8789111339
 C        -7.9555057586        4.9466157325       -2.4928544130
 C        -8.2896875086        2.9835886904       -0.9717146802
 O        -6.5051085381        2.0268940595       -2.7951476858
 O        -6.7068161010        6.0630546311       -0.2576436119
 C        -5.0132387397        4.8288031040        1.6904376397
 C        -3.5558219584        5.0015311520        1.1717556396
 C        -2.7593432250        6.2376192363        1.5845458854
 C        -2.1685640420        6.0749195629        3.1715803313
 C        -0.8881719219        5.2943593528        3.4548219447
 O        -2.9814325469        4.0842373181        0.5781881310
 O        -2.4682973299        6.8480703957        4.0224833052
 C        -1.5736011300        6.4683918200        0.7048923988
 C        -3.6271146421        7.5314959042        1.5735399243
 C        -0.5659909097        3.9700203517        2.7597981001
 C        -1.5975112165        2.7865857608        2.9874552219
 C        -1.1077131245        1.3232071297        2.6387528006
 C        -1.1525242185        1.3044863854        1.1188420156
 C        -2.4817846969        1.0118318015        0.3618391765
 C         0.3393533541        1.2233922828        3.2015635163
 C        -2.0184161578        0.2349082832        3.3286048149
 O        -2.7313388372        3.0067709413        3.2832139464
 O        -0.1468050130        1.6409773605        0.5367277549
 C        -2.2158739735        0.7614958541       -1.0932665114
 C        -0.8278941563        0.2365861213       -1.4607879725
 C        -0.1385182131        0.8108045186       -2.7727216561
 C         1.3789211319        0.6809304233       -2.5398953540
 C         2.1141171520        1.7884958816       -1.6853598951
 O        -0.4564530962       -0.8508921376       -1.0812442844
 O         2.0008834669       -0.3739200746       -2.8049418142
 C        -0.7498720067       -0.0865494339       -3.8071263988
 C        -0.4229967951        2.2909353275       -3.2448127987
 C         3.6791547605        1.6201044900       -1.3849038501
 C         3.9389443800        0.4547885564       -0.4585614898
 C         5.4337935327        0.2370303742        0.1219506629
 C         5.3538206387        0.3122845333        1.7303010737
 C         5.5076120987       -0.9459426985        2.5526239977
 C         5.8394160908       -1.1719866520       -0.3593805963
 C         6.3417168061        1.3436982883       -0.4407676639
 O         3.0430391192       -0.3144259577       -0.0399026851
 O         5.1344491100        1.3569391272        2.2391124812
 C         4.2630170178       -1.9311067476        2.2714282509
 C         4.4639845800       -3.4636423075        2.4419829963
 C         3.1175278920       -4.3705700759        2.9323379849
 C         2.2840965727       -4.1543166773        1.6228945719
 C         1.8690307340       -5.3292431877        0.7385981554
 O         5.5590462298       -3.9054678554        2.4288161120
 O         1.7976140831       -3.0438661950        1.4362130892
 C         3.5174178632       -5.8442207539        3.1728658026
 C         2.4602883964       -3.6679219128        4.1238507657
 C         2.9153752454       -5.7027783058       -0.2618520429
 C         3.1676612384       -4.6697966176       -1.3586840864
 C         2.9241968851       -4.9245324387       -2.8123247653
 C         1.3803536809       -4.4657836595       -3.1999201440
 C         0.4968935478       -5.3173409774       -4.1090343454
 C         3.7752328728       -3.9292323809       -3.5969397211
 C         3.3117591647       -6.3853558366       -3.2382803406
 O         3.5060963712       -3.5639132375       -1.0555386754
 O         1.0191754796       -3.3538105426       -2.8462589400
 C        -1.0024868258       -5.3704354709       -3.7084038556
 C        -1.1803414034       -5.7789305652       -2.1808573358
 C        -2.5738416095       -5.7566584802       -1.3997861540
 C        -2.9969148023       -4.2081253569       -1.2531189972
 C        -2.1362351922       -3.4262271351       -0.2899763626
 O        -0.0847787134       -5.9278202857       -1.5802345478
 O        -3.5980274634       -3.6917166923       -2.1200531048
 C        -3.6510066358       -6.4250279577       -2.2978120711
 C        -2.3914633460       -6.5314311145        0.0167492161
 H        -3.9996161641        3.5972126027       -2.1203831956
 H        -4.6694035816        3.6961422735       -3.7392598382
 H        -4.9792284039        4.9826505165       -2.5437211511
 H        -6.5615903347        3.3441099841        1.5366888722
 H        -5.4374873944        3.1516685963        0.2182528553
 H        -7.1607084416        5.4141455442       -3.0980935189
 H        -8.5403523356        5.6711443952       -1.9210401248
 H        -8.6937944488        4.4212995925       -3.0614861168
 H        -7.8579786428        2.3087051537       -0.2771240074
 H        -9.0821597636        3.5350906796       -0.3601320753
 H        -8.7188212202        2.4237787531       -1.7676873918
 H        -5.4736335574        5.7788169525        1.7356632397
 H        -4.6949941665        4.4844453338        2.7149483082
 H        -0.1583000520        6.1084405515        3.2384200735
 H        -0.8175987262        5.2448617021        4.5645536586
 H        -1.6530778805        5.9579929305       -0.2695760263
 H        -0.6597755951        6.1202584805        1.1149615488
 H        -1.4813883631        7.5369714114        0.5377945517
 H        -3.0140162335        8.4549475058        1.8015254606
 H        -3.9712207876        7.6223012613        0.5830807648
 H        -4.4542481012        7.4884210242        2.1936410543
 H         0.4236625995        3.6284613261        3.0384613504
 H        -0.3721424748        4.1318059033        1.6505828672
 H        -3.0515664229        0.1333054906        0.7249308703
 H        -3.0712876601        1.8776300089        0.6227481878
 H         0.4161414840        1.6214141064        4.2034498478
 H         1.0285132870        1.8584191408        2.6678833665
 H         0.5631941457        0.1302587107        3.3619410879
 H        -2.2897316026       -0.6080298540        2.7233515573
 H        -1.6491598249       -0.0514577861        4.3327054826
 H        -3.1024624959        0.6091462076        3.4906250647
 H        -2.7836970023       -0.1210800113       -1.4798598590
 H        -2.4550650755        1.5769202726       -1.7933711894
 H         1.9671900401        2.7982046728       -2.0919721613
 H         1.7277712507        1.7458576040       -0.6824927092
 H        -0.1982980637        0.2096460975       -4.7012516041
 H        -1.7915693011        0.1666014430       -3.8893228485
 H        -0.4914845811       -1.1005456449       -3.5695904245
 H         0.3069657103        2.3305133523       -4.0266313755
 H        -1.3832141827        2.4394456856       -3.7052523000
 H        -0.1161663129        2.9664560588       -2.4225905771
 H         4.0020258612        2.5905562834       -0.9277228344
 H         4.3611656405        1.5726793818       -2.2968551089
 H         6.5066889055       -1.4567015883        2.3469848558
 H         5.5337539149       -0.7314975711        3.5865481780
 H         5.1735220316       -1.9263175902        0.0847474208
 H         6.8334685303       -1.4563546317        0.0059559228
 H         5.9171482594       -1.2355664981       -1.4042518129
 H         6.0113735648        2.2844636729        0.0030752325
 H         7.3607226415        1.2507725664       -0.2661057281
 H         6.2064930960        1.4738979013       -1.5561376807
 H         3.4112029576       -1.7447682067        2.9628108073
 H         3.8966786057       -1.7420993621        1.3233463033
 H         1.8479243486       -6.2399598437        1.3744459556
 H         0.9023681425       -4.9977662439        0.1917487018
 H         3.8412232735       -6.4161986155        2.3319264506
 H         2.6629579232       -6.4310278231        3.5698207014
 H         4.2370194096       -5.8771534495        4.0000988415
 H         2.1241816430       -2.6782698253        3.8861744583
 H         1.6211527385       -4.3490486203        4.5715505676
 H         3.2679472123       -3.5062444116        4.8170917015
 H         2.4981006052       -6.6749755135       -0.7152340857
 H         3.9019219032       -5.9173863177        0.1644525801
 H         0.6543139955       -4.8120799176       -5.1129543342
 H         0.8811934006       -6.3243839081       -4.1875862175
 H         3.8246969948       -4.2643748816       -4.6510851371
 H         4.7544595093       -4.0229202673       -3.2477691488
 H         3.4640768400       -2.9412827029       -3.4349866791
 H         4.2363077715       -6.6627926059       -2.7639946485
 H         2.5973650744       -7.1386348712       -3.0994249300
 H         3.4768348119       -6.3384588711       -4.3717940447
 H        -1.1828552712       -4.2523454832       -3.8200572069
 H        -1.6258757699       -5.9618978526       -4.4462258839
 H        -2.4277361898       -2.3341804957       -0.1617588990
 H        -2.0823763806       -3.8687055554        0.7016352529
 H        -1.0938504936       -3.4610643907       -0.6140611028
 H        -3.9436844406       -7.4544232432       -2.0070322459
 H        -3.2765797248       -6.5954221074       -3.3194371725
 H        -4.5753120373       -5.9302126111       -2.4275182484
 H        -3.2808696753       -6.5253681981        0.6240113542
 H        -2.2103901190       -7.5299995641       -0.2949200349
 H        -1.4628565467       -6.1031804174        0.4507333609
 Na        1.6317323750       -1.9121266949       -0.9214483493
