155

 C        -4.8580788653        3.3158295738       -2.9677316342
 C        -5.9348620785        2.7469758384       -1.9999508529
 C        -7.0778158937        3.7694818559       -1.4941506436
 C        -6.3687271533        4.6690502194       -0.3514644699
 C        -6.0531835972        3.9848764142        1.0299828556
 C        -7.5503269561        4.7866115687       -2.6778364242
 C        -8.3545449012        3.0372989872       -0.9578333942
 O        -5.8341863855        1.6669758293       -1.5022396039
 O        -6.3828238292        5.9092297051       -0.4088721526
 C        -5.0124486600        4.6989162723        1.7786607629
 C        -3.7176351273        5.0819830101        0.9128745249
 C        -2.9994465825        6.4182303623        1.4752174976
 C        -2.4915007594        6.0425475609        2.9486163165
 C        -1.1244061399        5.3436313062        3.1969038824
 O        -3.2709334102        4.2787913763        0.1407993518
 O        -3.2839621170        6.3099340417        3.8067462084
 C        -1.8368127112        6.8045705291        0.4975064838
 C        -3.9438888292        7.6980794922        1.4736154736
 C        -0.9211356253        3.8419567380        2.7761578122
 C        -1.9279879833        2.7385338092        3.3804392103
 C        -1.6480076120        1.2171345950        2.8649475342
 C        -1.4261987155        1.1371909130        1.2128411110
 C        -2.4208077390        0.3508504890        0.4652296599
 C        -0.2905652707        0.7892529309        3.5687091218
 C        -2.7181575461        0.3606585482        3.4411749899
 O        -2.8744882370        2.9302268634        4.0339388734
 O        -0.4573671953        1.7530627293        0.7820548310
 C        -2.2916694861        0.6111181638       -1.0684943176
 C        -0.8375722118        0.2970486608       -1.4190327547
 C        -0.0833177779        0.9305889928       -2.6284859509
 C         1.5419211442        0.8945869081       -2.1645169204
 C         2.0077321733        2.0660176939       -1.3070820648
 O        -0.2634007158       -0.7346205629       -0.9762152455
 O         2.2379610744       -0.0381270019       -2.4632318626
 C        -0.3011762613       -0.1105653135       -3.7187920607
 C        -0.4407668044        2.4022708416       -2.9984478652
 C         3.5089369499        1.9505746501       -0.8418529346
 C         3.9270890645        0.6231874450       -0.1181447719
 C         5.3980656815        0.3731814580        0.2929823305
 C         5.2922150927        0.3322319312        1.9559708930
 C         5.4668680900       -1.0831110256        2.5577159259
 C         5.8741413471       -0.9416046179       -0.3483106517
 C         6.3410878065        1.4289691265       -0.1073272848
 O         3.1044166134       -0.2746569627        0.0401716024
 O         5.1495802646        1.2938357907        2.6309415318
 C         4.1753874618       -1.8987641968        2.8650601297
 C         4.2250529394       -3.4778312635        2.6130182775
 C         2.8810540704       -4.2994014792        2.7238994586
 C         2.2154183911       -4.1844336488        1.3875443304
 C         2.0036532451       -5.4232490673        0.4931149615
 O         5.2255116793       -4.1018437503        2.4949027057
 O         1.5908377709       -3.1574919213        1.2649073473
 C         3.3854723097       -5.6824459235        3.0434318520
 C         1.9744079777       -3.8099546587        3.8556776874
 C         3.1427953790       -5.7094344845       -0.4802514218
 C         3.2372383989       -4.5743580418       -1.4560321745
 C         3.0345338834       -4.7117919909       -3.0813379781
 C         1.6916976601       -3.8664334553       -3.4030468295
 C         0.8677220417       -4.4188048003       -4.6359084408
 C         4.1606216141       -3.9545879618       -3.7389241227
 C         2.9602427463       -6.2173652869       -3.5691911696
 O         3.7561120856       -3.4848649701       -1.0925866640
 O         1.2887174751       -2.8853856346       -2.8240471293
 C        -0.5962615184       -4.8627682839       -4.1262395118
 C        -0.6315935598       -5.4874205198       -2.7109298355
 C        -2.0413201448       -5.9179121991       -2.0848870339
 C        -2.7739151406       -4.5445100689       -1.4102122288
 C        -1.9976220573       -3.7378355620       -0.4075821985
 O         0.4096462834       -5.8774631427       -2.1909640234
 O        -3.8743486049       -4.2450906020       -1.7236097438
 C        -3.0822480520       -6.2760852179       -3.1506378079
 C        -1.8458938008       -6.8838498057       -0.8333197286
 H        -4.7891371782        4.3594236478       -3.0638630008
 H        -3.9263845865        3.0829875909       -2.6336369554
 H        -5.0254404773        2.8760264023       -3.9643748569
 H        -6.9336919732        3.8625831265        1.6584325958
 H        -5.8866438892        2.9598247245        0.7514480175
 H        -6.7682872669        5.5127312906       -2.8559808982
 H        -8.4271574221        5.2999599058       -2.2929364553
 H        -7.7140245232        4.1916342748       -3.6226622904
 H        -8.1272965475        2.4349942263       -0.1829008220
 H        -9.1675972684        3.7249771528       -0.7116608459
 H        -8.6756886875        2.4138873869       -1.7754468668
 H        -5.3969184110        5.7144034009        2.1865619759
 H        -4.6032048651        4.0757878500        2.5702737675
 H        -0.2716404218        5.9019944613        2.7432033901
 H        -1.0125603811        5.4789367540        4.2667201923
 H        -0.9804189121        6.2876637615        0.8385601686
 H        -1.5703870695        7.8546357613        0.4158457811
 H        -2.0771293652        6.2921763024       -0.4286118563
 H        -3.5768691155        8.4484042574        2.1575918580
 H        -3.9320669518        8.1373073408        0.5032327228
 H        -4.9369731843        7.4659763810        1.8195930369
 H         0.1413658848        3.7043826966        3.1498646973
 H        -0.8567118755        3.6591312452        1.7047923941
 H        -2.2431569276       -0.7118087344        0.5556343550
 H        -3.4492686595        0.4564893689        0.7777081384
 H        -0.2395726822        0.9354617072        4.6723303425
 H         0.6013964534        1.3679143288        3.0831640575
 H        -0.0147200343       -0.2509352227        3.4022838179
 H        -2.2841454808       -0.6168642190        3.7271426340
 H        -3.0944987652        0.7194887464        4.3979164489
 H        -3.5894087901        0.2560230893        2.8932381933
 H        -2.8414380524       -0.1822968117       -1.5609421966
 H        -2.5050087125        1.5681324076       -1.4988318008
 H         1.7049596066        3.0252877041       -1.8351653312
 H         1.4924852964        2.0005870129       -0.3836644249
 H         0.3290868083       -0.0212196419       -4.4992610059
 H        -1.3466900954       -0.0556401103       -3.9858149459
 H        -0.1251235190       -1.0594093451       -3.1639623972
 H         0.2214254654        2.6700075994       -3.7807973092
 H        -1.4920418826        2.4374848355       -3.1750273119
 H        -0.1789918066        2.9057164900       -2.1280004911
 H         3.7043275776        2.7882676885       -0.1665821593
 H         4.2198390691        2.0138446729       -1.6663062813
 H         6.0096473134       -1.7156128459        1.8931021695
 H         6.0260426951       -0.9316479861        3.3995151483
 H         5.3808627671       -1.8110967459       -0.1095714510
 H         6.9678236597       -0.9784825865       -0.2420728048
 H         5.6534804732       -0.8140315096       -1.4071936386
 H         6.0417728822        2.4029043140        0.2986962002
 H         7.3553164693        1.1037750936        0.2434013094
 H         6.4245225993        1.5791499283       -1.1426056435
 H         3.8360461765       -1.7511607765        3.8749295979
 H         3.4634969093       -1.5268550724        2.0931182103
 H         1.9395122361       -6.2659883281        1.2466773187
 H         1.0252278398       -5.4958127647        0.0247606692
 H         3.8172521014       -6.1538457380        2.1673541747
 H         2.6613856016       -6.4246015734        3.4689182206
 H         4.1889206066       -5.5582369485        3.6482106558
 H         1.4390407772       -2.8998524527        3.6162477696
 H         1.2005954965       -4.5639383865        3.9818777347
 H         2.5217183730       -3.8233597880        4.8331842778
 H         3.0327345888       -6.6028981046       -1.0589852779
 H         4.0769285571       -5.7638377482        0.0592177037
 H         0.6737290199       -3.6511787463       -5.3275123214
 H         1.3521999833       -5.2506126235       -5.2210782655
 H         3.9061171324       -4.0094429640       -4.8056237388
 H         5.1423973408       -4.3981150242       -3.5778046782
 H         4.1297252205       -2.9570732836       -3.3883413385
 H         3.7933593510       -6.8525443410       -3.0490519238
 H         2.0005396435       -6.6992717640       -3.5269716458
 H         3.2895232346       -6.3286145580       -4.5685873104
 H        -1.2421272188       -4.0071861932       -4.1240908974
 H        -0.8861766495       -5.6460672728       -4.8408732563
 H        -1.5844516045       -2.7805159647       -0.7945512182
 H        -2.6173564402       -3.4666308610        0.4086526038
 H        -1.1012970090       -4.2504706217       -0.0393992976
 H        -4.1195516752       -6.1276674212       -2.7622990716
 H        -3.0475768394       -7.3549236639       -3.2536145210
 H        -3.0406881948       -5.9320266437       -4.2723195973
 H        -2.8459424066       -6.9684789598       -0.3883777245
 H        -1.5609149573       -7.8087598361       -1.2717141266
 H        -1.1236242688       -6.5358539622       -0.1609136455
 Na        1.7240045935       -1.9258127559       -0.7547041828
