155

 C        -5.0035543484        2.1040565449       -3.4052584265
 C        -5.7766154542        1.9588281435       -2.1016430704
 C        -7.0212320460        2.7806994722       -1.8872337623
 C        -6.5633934592        4.0262330543       -0.7896853783
 C        -6.0251353053        3.5901874597        0.6009701090
 C        -7.4996644770        3.6359473062       -3.0894624279
 C        -8.1143656969        1.9211046756       -1.2088039997
 O        -5.3083828538        1.1297768734       -1.3406466710
 O        -6.7933025429        5.2056252611       -1.0355033167
 C        -5.4294641026        4.6700222667        1.3949040883
 C        -3.9455628660        4.9166506812        1.1255473237
 C        -3.2709141903        6.2899467529        1.6345517116
 C        -2.9701826002        6.2116785289        3.2677761355
 C        -1.7172731224        5.3689920293        3.8340379682
 O        -3.2831048382        4.0364999255        0.6598146851
 O        -3.3923407389        7.1182366872        4.0082250622
 C        -1.8783896017        6.5652904815        0.9817576151
 C        -4.1752174982        7.4723587022        1.4484374911
 C        -1.4486268104        3.9887009504        3.3149391544
 C        -2.5631275566        3.0169736066        3.6442104605
 C        -2.3322349908        1.4313129722        3.3198036267
 C        -1.8989648851        1.4597453895        1.7755548042
 C        -2.7662235600        0.7165402901        0.7255290868
 C        -1.2121811074        0.8507842835        4.1619747521
 C        -3.6928110252        0.6896970510        3.4441530115
 O        -3.6876397968        3.3875500139        4.0081467541
 O        -0.8046447269        1.9638564338        1.4359083085
 C        -2.2687280332        0.7370437770       -0.7213756330
 C        -0.7725386336        0.5088568024       -0.9028521674
 C         0.0348670063        1.4769664469       -1.8969752719
 C         1.5277434874        1.3465904689       -1.3555473239
 C         1.7791015046        2.0488719181       -0.0269642657
 O        -0.2789371702       -0.5439406434       -0.5358984428
 O         2.3560609540        0.6424923987       -1.9929797912
 C         0.0233074441        0.9813562421       -3.3246261765
 C        -0.3301722619        2.9680816863       -1.9831751885
 C         3.2189200982        2.2736690475        0.3783752346
 C         3.8609821519        0.8267238036        0.7760578165
 C         5.3513382060        0.7244608589        1.1463423372
 C         5.4226872078       -0.1767333052        2.4720987465
 C         5.5163239344       -1.6876509935        2.3052727514
 C         6.1841999414        0.1384309534       -0.0108298228
 C         6.0833527691        2.1882368558        1.4685303335
 O         3.1464596888       -0.1405745000        0.7793580111
 O         5.4194248818        0.2687715736        3.6130932839
 C         4.1218249083       -2.3348575531        2.8173406031
 C         3.9225446819       -3.7748878327        2.3915296217
 C         2.4992920020       -4.6118815854        2.4432483530
 C         1.9688628963       -4.3288655521        0.8689373035
 C         2.4176234967       -5.2165712038       -0.3530075795
 O         4.9396666327       -4.3108006509        1.9624904960
 O         1.4606378230       -3.2348162102        0.6480100474
 C         2.7354229095       -6.0137140291        2.8153653608
 C         1.5475887383       -3.9847275471        3.5131229241
 C         3.8426765893       -4.8656710767       -0.8376401589
 C         3.9583632172       -3.5235230152       -1.7003879176
 C         3.6663351444       -3.6113452078       -3.2539979249
 C         2.1717271240       -3.7635339541       -3.4502071891
 C         1.6057535120       -4.4941280172       -4.6334288414
 C         4.1784170828       -2.3376800940       -3.8654038342
 C         4.3678156167       -4.8761447636       -3.7851055818
 O         4.3103181945       -2.4977274943       -1.2358715710
 O         1.3688000040       -3.1955117696       -2.7131914339
 C         0.1379416070       -4.8554125613       -4.6078813502
 C        -0.2440173974       -5.9762466209       -3.6852733276
 C        -1.6530220639       -6.3557774169       -3.5157831836
 C        -2.2326808589       -5.3226295625       -2.2949784501
 C        -1.8652350142       -5.5866305203       -0.8988467580
 O         0.6077043078       -6.4877819000       -3.0248103714
 O        -3.0087726609       -4.3905159850       -2.5586376727
 C        -2.5719445930       -6.2381416336       -4.7761094016
 C        -1.8872387534       -7.8773642215       -3.0330769530
 H        -4.3272099889        2.9848812881       -3.2922384948
 H        -4.4075172441        1.2883179313       -3.4950609440
 H        -5.5328558203        2.4135953468       -4.2996380290
 H        -6.8622378662        3.0033142095        1.0302338927
 H        -5.2200998082        2.9636039138        0.2542352244
 H        -6.6569287391        4.0906484227       -3.5434517954
 H        -8.1834394061        4.3848684367       -2.7215875032
 H        -7.9591321782        3.0054544105       -3.8623812610
 H        -7.9561233049        1.7596783247       -0.1956587518
 H        -9.1608161805        2.2948140098       -1.4043847751
 H        -8.0828474261        0.9404019289       -1.7508854254
 H        -6.0553868266        5.6225032823        1.2457153283
 H        -5.5411036028        4.4734022128        2.4584798302
 H        -0.8791791859        6.0295618026        3.6853384789
 H        -1.8645854336        5.3034458835        4.9623746172
 H        -1.1998426771        5.7179498004        1.1511905360
 H        -1.4334107817        7.4132948434        1.5977212508
 H        -1.8784092598        6.6502997388       -0.1141251159
 H        -5.2415419298        7.2562187442        1.3416069863
 H        -4.0860904661        8.1867092895        2.2736907417
 H        -3.9056910602        8.0971022035        0.5827763826
 H        -0.5186274247        3.5615620873        3.7648814561
 H        -1.3324193694        3.8589805517        2.1978751131
 H        -2.7607032020       -0.3102189448        0.9760125027
 H        -3.8046432578        1.1440171621        0.8773385840
 H        -0.9873195699        1.3391036192        5.0999096052
 H        -0.3508584317        1.2411039229        3.5445849614
 H        -1.2273172187       -0.1752248105        4.3329421709
 H        -3.5111075708       -0.4185481817        3.5208801905
 H        -4.2781484939        1.0259721222        4.3126708004
 H        -4.2341189777        0.9805892312        2.5601292352
 H        -2.6532568076       -0.0818613514       -1.3232439388
 H        -2.5396027769        1.6299770615       -1.2707273487
 H         1.2951211509        3.0096744710       -0.0848251564
 H         1.1586225804        1.4065187026        0.7309430216
 H         0.8718128412        1.3441567897       -3.7935779162
 H        -0.9004664327        1.2524405809       -3.8666015758
 H         0.0794690715       -0.1622759804       -3.3654889593
 H         0.5757708705        3.4759299107       -2.3279597629
 H        -1.2448230079        2.9556230628       -2.5973502703
 H        -0.5873792142        3.3716316504       -1.0154589079
 H         3.2697308289        2.9127764605        1.2901990644
 H         3.7812503235        2.9125988091       -0.3672235069
 H         5.6315239489       -2.1344299222        1.2430310401
 H         6.3873564187       -2.2639256445        2.8864476378
 H         5.7048464093       -0.6789649536       -0.5012312079
 H         7.1818145485       -0.1837648007        0.3405693737
 H         6.2921944989        0.9576010023       -0.8167176937
 H         5.5359266989        2.7069776322        2.2269981842
 H         7.0708837152        1.8493090673        1.8085046504
 H         6.1562459793        2.8459984565        0.6854199895
 H         3.8968742990       -2.1508595489        3.8151481005
 H         3.3636268305       -1.6945883738        2.2856837851
 H         2.5332063515       -6.3344833696       -0.0956824943
 H         1.7183488849       -5.0298534130       -1.2118202107
 H         3.4220347513       -6.5212286560        2.1078419698
 H         1.7517859501       -6.5226238370        2.9396370065
 H         3.2740374875       -5.9359169086        3.6869749490
 H         1.4612435683       -2.9136050072        3.3006715582
 H         0.5274161772       -4.3001171427        3.5507725856
 H         1.9957386986       -4.1495075043        4.5401113870
 H         4.1215976798       -5.7046933613       -1.4196428225
 H         4.5344550551       -4.8517979111        0.0567655221
 H         1.7584060188       -3.7588154346       -5.4512747361
 H         2.2604540330       -5.3654275411       -4.8276327373
 H         4.3226794022       -2.4446416101       -4.9015683332
 H         5.1730428298       -2.1176291737       -3.5503690500
 H         3.5469351433       -1.6265043137       -3.4752935899
 H         5.5073072258       -4.8346748059       -3.5454093264
 H         3.9363619913       -5.8458565191       -3.5916819140
 H         4.3911892246       -4.7964488910       -4.8479752411
 H        -0.4918709214       -3.9287874533       -4.3819500795
 H        -0.2860437208       -5.0412393983       -5.6030601772
 H        -1.0423245746       -4.9741356392       -0.5242459682
 H        -2.6938273081       -5.3821928636       -0.2212277840
 H        -1.5170999057       -6.6131061926       -0.6243019506
 H        -2.2336802126       -5.3088491855       -5.3839963232
 H        -3.6718112100       -6.3449815172       -4.5082450539
 H        -2.3978114469       -7.0527546165       -5.3468025679
 H        -2.9901428357       -8.0889430275       -2.8201766194
 H        -1.5410962958       -8.3815877696       -3.9663637797
 H        -1.2261072347       -8.2692018551       -2.2478927335
 Na        1.7855691571       -1.4286863330       -1.1007690181
