155

 C        -4.9822189771        2.2383372326       -3.3574479591
 C        -5.9039141240        1.8598488069       -2.2503075137
 C        -7.1425785096        2.6868117695       -1.9015604707
 C        -6.5412627045        3.9259437556       -0.9234275479
 C        -5.9799770232        3.4636762664        0.5240275857
 C        -7.7598158344        3.2326592729       -3.2205332479
 C        -8.2494429082        1.9642700769       -1.0351756901
 O        -5.4149492996        1.0473979297       -1.4246693879
 O        -6.6534317895        5.0839770200       -1.2049112307
 C        -5.3316795224        4.6299577761        1.4501487283
 C        -3.8192710140        4.8695208180        1.1782282212
 C        -3.2670117616        6.2508686814        1.7230135178
 C        -3.1011193379        6.2932721151        3.3017946151
 C        -1.9056523376        5.4472090866        3.8945190225
 O        -3.0282685036        4.1654042275        0.4902709861
 O        -3.8589526306        6.9042976119        3.9789798333
 C        -1.8642291217        6.5910135802        1.1107997225
 C        -4.1944341940        7.4956694111        1.2416837070
 C        -1.4603463239        4.1082092588        3.2746361640
 C        -2.6090927695        2.9894354357        3.6837644851
 C        -2.3942740563        1.4790572796        3.3056414286
 C        -1.9071014935        1.3938043130        1.8416980843
 C        -2.7932487665        0.7354169252        0.7327042324
 C        -1.3462152146        0.8531815424        4.2535327449
 C        -3.8071200174        0.8292825007        3.6906131656
 O        -3.5927501544        3.3920360457        4.1825996884
 O        -0.8415410166        1.8056521087        1.5142364431
 C        -2.3412157581        0.9054149781       -0.7192440226
 C        -0.8529285970        0.5552015736       -0.9927008774
 C         0.0360550778        1.5188098844       -1.8117571846
 C         1.5384157671        1.4823711462       -1.2834672098
 C         1.8481359864        2.2813295617        0.0437159724
 O        -0.4130996401       -0.5792796856       -0.7761132391
 O         2.3962540118        0.8581953966       -1.8040881952
 C         0.0541379421        0.9412451511       -3.2998819618
 C        -0.4790218530        3.0419307601       -1.7343328629
 C         3.3371000789        2.1963728916        0.4490984827
 C         3.8668783437        0.8461310689        0.7777411988
 C         5.3708898899        0.7645026382        1.3637611051
 C         5.3678083290       -0.3175962664        2.5100895668
 C         5.3705043904       -1.8016530214        2.1951203139
 C         6.2331845279        0.2308888224        0.1736238777
 C         5.7842634879        2.0901594753        1.8747502012
 O         3.3542479655       -0.2494789116        0.4768598763
 O         5.5014440198        0.1363570599        3.6076601763
 C         4.1442510846       -2.5579424856        2.7655812101
 C         4.0766475875       -3.9819738944        2.4942558706
 C         2.6230368513       -4.5121878347        2.2719425715
 C         2.1811856522       -4.1246268066        0.8386102958
 C         2.6361062695       -5.0763787592       -0.2318049004
 O         5.0305902883       -4.6217130727        2.1065320947
 O         1.5193402532       -3.0995551304        0.6823513749
 C         2.7110454426       -6.0689001121        2.4146778853
 C         1.4937048392       -3.8847941861        3.1784344340
 C         4.0511390927       -4.8622206071       -0.9030250078
 C         3.9483687849       -3.5427287193       -1.6006635223
 C         3.6363216998       -3.4419684556       -3.1748977235
 C         2.1795868661       -3.6663273201       -3.4120708892
 C         1.6859740367       -4.3786895146       -4.7615204772
 C         4.0660436521       -2.0511488682       -3.8260525621
 C         4.5380138667       -4.4832173567       -3.8369894959
 O         4.0502126054       -2.4587407463       -0.9677034462
 O         1.3875793986       -3.0741395229       -2.6926530206
 C         0.3351805352       -5.0768716926       -4.8095493996
 C        -0.1564966801       -6.0418167526       -3.7895761471
 C        -1.5744114686       -6.4419268307       -3.5667674010
 C        -2.2792468927       -5.4226461788       -2.4584372792
 C        -2.2181842964       -5.8921062466       -1.0285586102
 O         0.7269490810       -6.5816789194       -3.0992000728
 O        -2.7910547227       -4.4168553261       -2.7928017358
 C        -2.4409298400       -5.9774723071       -4.8268492400
 C        -1.7565041048       -7.8729644590       -3.1187111797
 H        -4.3897769235        3.1073255385       -3.1536555439
 H        -4.2836204863        1.3928361004       -3.5997245281
 H        -5.5752719855        2.6331174432       -4.2637214980
 H        -6.9517402040        3.2489076856        0.9404396575
 H        -5.4227200982        2.5045549915        0.3479506746
 H        -7.1707178603        4.0720508272       -3.6544596316
 H        -8.7318674886        3.6829637630       -3.0337738755
 H        -7.7725633817        2.4864961265       -3.9681362282
 H        -7.8748106562        1.6598625864       -0.0378055307
 H        -9.0122402322        2.6461948656       -0.8976610528
 H        -8.7075007692        1.1190093647       -1.5114431772
 H        -5.8665304482        5.4974446133        1.2395982534
 H        -5.5664135840        4.5516832205        2.5366249900
 H        -1.0815016947        6.1896843973        3.9596543085
 H        -2.2102785213        5.3112334452        4.8869715363
 H        -1.1231297927        5.8715170182        1.3824311885
 H        -1.5586827555        7.5770481597        1.3589632361
 H        -1.8774919326        6.4102690190        0.0688884889
 H        -5.2103367445        7.2567318744        1.1948427682
 H        -4.1910588285        8.2528510513        1.9957833339
 H        -3.9447056635        7.9822641204        0.3173551570
 H        -0.4948588031        3.7256163639        3.6105866758
 H        -1.3493833003        4.1850661592        2.2056468814
 H        -2.7196347737       -0.3893294939        0.8905531087
 H        -3.7852141604        1.0702014749        0.8719878327
 H        -1.8593140802        0.6660601273        5.2418054645
 H        -0.4677449694        1.4325121130        4.5080606216
 H        -1.0394554400       -0.1762366499        3.7577347486
 H        -3.8352313485       -0.2189795785        3.4877391759
 H        -3.8393759455        0.8735572971        4.7611908816
 H        -4.5907469350        1.4490898256        3.3336587162
 H        -2.9321757386        0.2865562331       -1.4101386811
 H        -2.4811774619        1.9468603391       -1.0321285709
 H         1.5129773937        3.3343423619        0.0018098665
 H         1.3013366143        1.8292062875        0.8169123999
 H         0.7005127385        1.5254554175       -4.0175640970
 H        -0.9577146411        0.8803475919       -3.6586589743
 H         0.3997057983       -0.0550325503       -3.3052679096
 H         0.2716120648        3.7708546116       -2.0908189610
 H        -1.3702645437        3.0683600839       -2.3430482319
 H        -0.8421045170        3.2660626406       -0.7280588682
 H         3.4425302175        2.8394104741        1.3025234788
 H         4.0971262834        2.4584935640       -0.2435625347
 H         5.3621071418       -2.0486627709        1.1750253428
 H         6.1835514770       -2.2376359534        2.5722527716
 H         5.6679654444       -0.3933675872       -0.5582488822
 H         7.0007300927       -0.3636325177        0.6378906218
 H         6.7241999119        0.9576417363       -0.4079409667
 H         5.2671056241        2.2816495719        2.8244171178
 H         6.8483003573        2.0562509137        2.0264038110
 H         5.4805694823        2.8829964830        1.1287766489
 H         3.9040559807       -2.2616234576        3.8610287522
 H         3.3032124680       -2.0990649083        2.2858909102
 H         2.6282377776       -6.0804680792        0.1059964301
 H         1.8876214153       -5.0994578150       -0.9941868107
 H         3.7035581545       -6.3605361881        2.0810930695
 H         1.8839492559       -6.5007120910        1.9349718706
 H         2.7132223943       -6.3435117552        3.5116028127
 H         1.2128592075       -2.8189515300        3.1211285282
 H         0.5152319008       -4.3540756656        2.9205084420
 H         1.6721405755       -4.2331942163        4.1738242457
 H         4.2790126478       -5.6622199896       -1.6439000656
 H         4.8145425939       -4.9067836223       -0.1702919889
 H         1.6081638841       -3.5632491048       -5.4798694199
 H         2.4530453363       -5.0525541389       -5.0584242334
 H         3.9871492680       -2.2416507053       -4.8717889306
 H         5.1614609658       -1.9122606489       -3.7140981289
 H         3.6016564983       -1.1892178948       -3.3103662703
 H         5.5091489480       -4.3378265621       -3.5020575016
 H         4.1701422873       -5.5047260342       -3.6466916797
 H         4.6169316563       -4.3878224183       -4.9274255398
 H        -0.3801709824       -4.3493869790       -5.0516447330
 H         0.2916253308       -5.7062111032       -5.6828933832
 H        -1.3002467609       -5.6268372909       -0.5179217822
 H        -3.0080845923       -5.3783380618       -0.4554958301
 H        -2.3164785515       -6.9237963274       -0.7666438131
 H        -2.2474425806       -4.9946028931       -5.0330092637
 H        -3.4469566585       -6.1445350956       -4.6304830914
 H        -2.1733649793       -6.6189609535       -5.7533182691
 H        -2.7285343585       -8.0039186205       -2.7052169064
 H        -1.5073860102       -8.6079886553       -3.8600323136
 H        -1.0261715809       -7.9579226522       -2.3030238051
 Na        1.9287351582       -1.4142822258       -0.8559716038
