155

 C        -5.3123727859        2.1582067781       -3.7253515282
 C        -6.0335360635        1.4541632012       -2.4966326274
 C        -7.2064596527        2.2682365240       -1.7133518465
 C        -6.3842389146        3.4595063505       -1.1070485157
 C        -5.8133536212        3.2789565150        0.3044362395
 C        -8.1564768236        2.8709659923       -2.7154563189
 C        -7.9912391842        1.3644536373       -0.7009966145
 O        -5.5078861909        0.4737653114       -2.0150992865
 O        -6.2607203099        4.5055938579       -1.7102738991
 C        -5.2888798392        4.4623711580        1.0631960501
 C        -3.8478474747        4.9186402824        0.8272960229
 C        -3.3895974312        6.3390977913        1.5577943662
 C        -3.5043965911        6.1757406375        3.1280956046
 C        -2.3996797157        5.4796853234        4.0201926212
 O        -3.0987591530        4.4008396934       -0.0054678776
 O        -4.5087034726        6.5165042696        3.7366858769
 C        -1.9549458533        6.5548912559        1.1709409970
 C        -4.2606206958        7.5885119535        1.1447011317
 C        -2.0023586564        4.0829514055        3.5785014100
 C        -3.0698653771        2.9179254692        3.6983539499
 C        -2.5479476822        1.4636995368        3.6000469155
 C        -1.9612558849        1.3858030011        2.1034523692
 C        -2.7119969350        0.6497218078        1.0116477212
 C        -1.3996080807        1.1702757176        4.6485597985
 C        -3.7861122724        0.5046456483        3.9435560396
 O        -4.2885901918        3.1913028425        3.7424364205
 O        -0.8235168757        1.7339559677        1.9166599376
 C        -2.3542635282        1.0416442417       -0.4086575761
 C        -0.8368788030        0.9085033083       -0.6010007596
 C         0.0047331315        1.8829208509       -1.4214084983
 C         1.5582893212        1.7099049103       -1.1228416934
 C         2.1020741763        2.3223486870        0.1708986571
 O        -0.3278696002       -0.1374585097       -0.1311540087
 O         2.1749238917        0.8688474521       -1.7146156597
 C        -0.2731331157        1.5101088667       -2.9711167676
 C        -0.4015774291        3.3603484791       -1.1717470425
 C         3.5373544737        1.9771652023        0.4531810824
 C         3.8709981827        0.6812688473        1.2955094313
 C         5.2390589525        0.7252537080        1.9836836451
 C         5.2856943833       -0.5615274938        2.8507132123
 C         5.1638409529       -1.9611705398        2.2493233197
 C         6.1910257561        0.6263234742        0.7785942756
 C         5.3680536365        1.9624789041        2.8987288421
 O         3.1663089339       -0.2801597503        1.2192365572
 O         5.5255163274       -0.3864236286        4.0421333598
 C         3.9032553964       -2.7495557218        2.7912195462
 C         3.9901758667       -4.2349161033        2.4752418388
 C         2.6701426565       -4.9659998584        1.9281314788
 C         2.3532877372       -4.2132633791        0.5900374557
 C         2.6560539258       -4.9711609422       -0.7308956317
 O         5.0382191739       -4.8377669573        2.5637562132
 O         1.8131892224       -3.1293687294        0.6513428866
 C         2.9318769307       -6.4544065441        1.8322009494
 C         1.4761161986       -4.6167986529        2.9086453900
 C         4.0154089925       -4.6667350610       -1.4300654625
 C         4.0322030104       -3.1497924828       -1.8384615846
 C         3.8250419198       -2.7181746724       -3.3592323642
 C         2.3638435806       -3.1043325004       -3.5788448893
 C         2.1181945180       -4.1431703747       -4.6548858250
 C         4.0445285529       -1.1065719152       -3.3410354524
 C         4.8106048995       -3.3248130429       -4.3465839417
 O         4.2549943972       -2.3301702607       -1.0001655575
 O         1.5297371963       -2.3225022533       -3.1701511180
 C         0.6558898816       -4.5916802560       -4.7711511541
 C         0.2716798580       -5.8177166744       -3.8831510270
 C        -1.1990612538       -6.4166199522       -3.9739793281
 C        -2.1078838512       -5.6208469604       -3.0296715493
 C        -3.1295720592       -6.4187782905       -2.2044858131
 O         1.0948722585       -6.4020462351       -3.1914199731
 O        -1.9995422001       -4.4043017852       -3.0074058798
 C        -1.8037419997       -6.1815672552       -5.3983278813
 C        -1.1265450883       -7.8320446472       -3.6118706314
 H        -4.6758492354        3.0872278629       -3.5523620968
 H        -4.6727013707        1.4182141328       -4.1150583131
 H        -5.9755907058        2.2327241727       -4.5898160673
 H        -6.5109100840        2.7748519684        0.9685240945
 H        -5.0113535664        2.4753302197        0.1621678713
 H        -7.6755682054        3.6370865399       -3.3417142417
 H        -9.0404771049        3.3080323980       -2.2106822246
 H        -8.6636252476        2.1664713053       -3.3573646313
 H        -7.6461822333        0.3954509141       -0.5156058766
 H        -8.0666219256        1.9262207637        0.2647034650
 H        -9.0477571970        1.2507266701       -1.1429820420
 H        -5.9132789928        5.3134302256        0.9245112829
 H        -5.5162258811        4.3872744157        2.1659471880
 H        -1.4418110070        6.0474002887        4.0745281482
 H        -2.8470755812        5.4105176166        5.0073815381
 H        -1.3440547004        5.7776609794        1.6573797162
 H        -1.5150930560        7.5337786526        1.6392772702
 H        -1.7941339959        6.6513831351        0.1021345206
 H        -5.3299969633        7.4386273010        1.0250654389
 H        -4.0636580481        8.4148440690        1.8819890385
 H        -3.9226517287        7.9194977903        0.1064262469
 H        -1.0966183060        3.7644245138        4.1532006598
 H        -1.5895112258        4.0810411901        2.5382345034
 H        -2.4640213536       -0.4347734450        1.0316254739
 H        -3.7269970171        0.7589548166        1.2685093336
 H        -1.7744736694        0.9785408762        5.6418279764
 H        -0.5920912557        1.9088995278        4.6207084008
 H        -0.8940230479        0.2853386520        4.3097345100
 H        -3.6272488619       -0.5002018966        3.3986721482
 H        -3.6830275543        0.3548319288        5.0393027217
 H        -4.7537882567        0.8108976779        3.6717984380
 H        -2.7362372646        0.3109470903       -1.0839945802
 H        -2.8251173107        1.9946515645       -0.6819804961
 H         1.9655415661        3.3523109041       -0.0553199858
 H         1.4449760029        2.0992253390        1.0681487506
 H         0.0686793593        2.2478676444       -3.6111902170
 H        -1.3585908836        1.4208202495       -3.2234661756
 H         0.1788874594        0.5462026211       -3.3747594306
 H         0.2307239771        4.0910829365       -1.7813907040
 H        -1.4271063512        3.5180751204       -1.5503966532
 H        -0.4166267597        3.6093812721       -0.1289064441
 H         4.0545648541        2.8386185250        0.9375798878
 H         4.0174995329        1.7014434347       -0.5098477434
 H         5.0104753255       -1.9365329698        1.2035555851
 H         6.0150562734       -2.5990847016        2.5295327042
 H         5.8074559735        0.0783481421       -0.0641789802
 H         7.0309252546        0.0456509449        1.1700781136
 H         6.6028481123        1.6441045915        0.4309840314
 H         4.3525102434        2.1039596637        3.2364036915
 H         5.9571228415        1.7818869151        3.8322887712
 H         5.7519777526        2.7740885289        2.3583820074
 H         3.8140445195       -2.5322876197        3.9368434176
 H         3.1119899720       -2.2298562137        2.3091529410
 H         2.7090234327       -6.0446622541       -0.4840037748
 H         1.7774746991       -4.9180685909       -1.3514809192
 H         3.7991562578       -6.7157858310        1.1478368876
 H         2.0503920307       -6.9130871096        1.3857773461
 H         3.0239800028       -6.7869454685        2.8377181096
 H         1.3903375851       -3.5289958722        3.0916159960
 H         0.6116134356       -5.0240688411        2.5469910485
 H         1.6297069662       -4.9690733434        3.9418377595
 H         4.1471742913       -5.3010072684       -2.3060458998
 H         4.8743109646       -4.7686860057       -0.7593621085
 H         2.4725591226       -3.6778239374       -5.6420977580
 H         2.7514751608       -5.0221238547       -4.4311296518
 H         4.2422684304       -0.7899183479       -4.3300378088
 H         4.8009617605       -0.9610089260       -2.5539398162
 H         3.1441893316       -0.5895397634       -3.1973061115
 H         5.8304505554       -2.9701659544       -3.9535067356
 H         4.8737072810       -4.4393824793       -4.2731091453
 H         4.6280582285       -2.9975871428       -5.3131667338
 H         0.0227637813       -3.6878986604       -4.6471806113
 H         0.5642291627       -4.9511027891       -5.7922592997
 H        -2.6453825483       -7.1352928916       -1.6102205607
 H        -3.8081670104       -5.9600892453       -1.4671175505
 H        -3.7453937108       -7.0345615683       -2.8952520917
 H        -2.3731629919       -5.1729159229       -5.4205497284
 H        -2.5981299723       -6.9181157499       -5.6799950374
 H        -1.1037620094       -6.1694323537       -6.1382943015
 H        -2.0531158602       -8.4402663074       -3.7983419982
 H        -0.3007181641       -8.4366131059       -4.0594762350
 H        -0.9006485219       -7.8386726509       -2.5457565356
 Na        1.9494005477       -1.2482142410       -0.6501914950
