155

 C        -5.3481819095        2.3540051757       -4.0116449745
 C        -5.5130157514        1.3164720686       -2.7887543551
 C        -6.7568200556        1.2752042527       -1.9461589596
 C        -6.9581315304        2.7162124018       -1.3270543394
 C        -5.9981982006        3.0420158616       -0.2398419108
 C        -7.9467516229        0.9327998487       -2.8229212048
 C        -6.5674627643        0.1289862508       -0.7786060866
 O        -4.5510557818        0.6462143128       -2.4130470145
 O        -7.8553861436        3.4703975939       -1.6475606441
 C        -5.8793656407        4.5599854293        0.1255173651
 C        -4.4113236236        4.8605508019        0.5927328340
 C        -3.8494964848        6.1852904699        1.4092488584
 C        -4.2775523703        5.8165768945        2.9092762641
 C        -3.2313421865        5.5581945557        4.0317544123
 O        -3.5186638797        4.0518997950        0.3678798384
 O        -5.4775172298        5.8836918252        3.1311011452
 C        -2.3437958784        6.3255265536        1.1819214120
 C        -4.5827744599        7.5272402089        0.9640214877
 C        -2.2868342561        4.3362523965        4.0014259656
 C        -3.1958916177        2.9655242025        4.1151788303
 C        -2.4468202035        1.5635550915        3.8933820559
 C        -1.9037208578        1.6226321693        2.4392709170
 C        -2.7365474115        0.8424037387        1.3923765070
 C        -1.3198460675        1.6166288149        4.9503348294
 C        -3.4275490875        0.3700580988        4.1221671190
 O        -4.3673080394        3.0659855929        4.4873532540
 O        -0.8825468755        2.2598475628        2.1719344551
 C        -2.2317574097        1.0618326325       -0.0384359712
 C        -0.7021652881        0.8486996171       -0.1364851211
 C         0.1308096198        1.9425560894       -0.9356608108
 C         1.6657267872        1.5936036516       -0.5955429742
 C         2.1457961239        2.0456606604        0.8567516018
 O        -0.2400741987       -0.2030726452        0.1999000385
 O         2.3567359103        0.9439195457       -1.3207491363
 C        -0.2081366306        1.5278750255       -2.3358095686
 C        -0.3434334610        3.3565373190       -0.6916405401
 C         3.6636715417        1.7797091059        1.0096195155
 C         3.7501317335        0.4974294171        1.8903716789
 C         4.4735758691        0.4483814927        3.3380415741
 C         4.4054217435       -0.9739374124        3.8364188804
 C         4.8065821142       -2.2138942655        2.9057303823
 C         5.9692363434        0.7438712303        3.2433050403
 C         3.7703923582        1.5410707483        4.2234388160
 O         3.1226367300       -0.5008144786        1.4987044886
 O         3.8712514649       -1.0793396267        4.9314597175
 C         3.8723724462       -3.4297981256        3.1103753538
 C         4.2551140411       -4.5800337900        2.2054999750
 C         3.0876138764       -5.3521233794        1.4661345583
 C         2.7904498840       -4.3859027673        0.2490604805
 C         3.1051859760       -4.8690499412       -1.1274380361
 O         5.3784291114       -4.7753465232        1.7749364039
 O         2.4119147483       -3.2287617451        0.4170388697
 C         3.6871634035       -6.8046384443        1.1963515217
 C         1.7451245160       -5.5551438966        2.2691674379
 C         4.3172979274       -4.1721330376       -1.7926131809
 C         4.0311009251       -2.5853106359       -2.0645478954
 C         3.5832132336       -2.1797686611       -3.4777613609
 C         1.9788774971       -2.2171748522       -3.6129565993
 C         1.4340023529       -2.2216372602       -4.9824934508
 C         4.0725581095       -0.7147143652       -3.5681907032
 C         4.3399542259       -3.0133211087       -4.5260184546
 O         4.1796447428       -1.8219958908       -1.1505546736
 O         1.2107011148       -2.0505456114       -2.6671164697
 C         0.2698469255       -3.1342082710       -5.0545503903
 C         0.7849686295       -4.5310266639       -4.5698593737
 C        -0.0233703564       -5.8648758718       -4.7681037009
 C        -1.4251913631       -5.5386768105       -4.2839889854
 C        -2.4232693355       -5.1117520001       -5.4547690101
 O         1.8659536766       -4.6447970347       -4.0478512444
 O        -1.8213279977       -5.4674980134       -3.1361848257
 C         0.0904821095       -6.3001958868       -6.2569369523
 C         0.5798940394       -6.8934680488       -3.8047603901
 H        -4.8363476324        1.8204198237       -4.8637785324
 H        -6.2265961940        2.8466055076       -4.3378468462
 H        -4.6221092909        3.1676156410       -3.6698247983
 H        -6.2549999587        2.4423806587        0.6168362930
 H        -4.9545936934        2.7550546776       -0.4250104380
 H        -7.6017885748        0.8564315222       -3.8538154272
 H        -8.7100561188        1.7083007291       -2.7295515794
 H        -8.5338825721        0.0770217449       -2.4001824796
 H        -7.3413646805       -0.6202502480       -0.9864913109
 H        -5.7243114517       -0.4704792098       -0.8037117958
 H        -6.7309364618        0.5138385517        0.2226675921
 H        -6.0456222433        5.1344585710       -0.7774399027
 H        -6.7259310989        4.6916411125        0.8240934424
 H        -2.7378846125        6.5068764527        4.0864465624
 H        -3.7237447338        5.5189368855        5.0371335902
 H        -1.8231981394        5.3210012436        1.1984500353
 H        -1.8638982067        7.0544018718        1.8321801230
 H        -2.3228502595        6.7394186250        0.0967440793
 H        -5.6785852295        7.3730031427        1.1675760798
 H        -4.1677410611        8.4548147907        1.4631073353
 H        -4.5832468238        7.5818626947       -0.1283199575
 H        -1.6297711650        4.2862339279        4.8649343887
 H        -1.6318401580        4.2313571129        3.0985716629
 H        -2.5693115346       -0.2039530654        1.6054820470
 H        -3.7977737802        0.9878343080        1.4999655460
 H        -1.7549914245        1.7215769071        5.9149541285
 H        -0.5689479341        2.2974205103        4.6753013687
 H        -0.8139476764        0.6097497061        5.0707565444
 H        -2.8646494193       -0.5644175496        4.0493795670
 H        -3.7247433017        0.5341590118        5.1868800055
 H        -4.2934490748        0.1862614055        3.4903422758
 H        -2.7920631776        0.3313012361       -0.6246700531
 H        -2.5650154319        2.0469434868       -0.3323121326
 H         1.9335058029        3.0741345733        1.1021827714
 H         1.6743555628        1.4214538024        1.6586264398
 H         0.1219732755        2.2835086597       -3.1524364862
 H        -1.2840311107        1.4991216416       -2.4773266481
 H         0.1850412403        0.6052283603       -2.6732764932
 H         0.3307686538        4.1644109169       -0.7991287640
 H        -1.1352230697        3.7094583932       -1.3028484075
 H        -0.8107358797        3.4747805151        0.3062215473
 H         4.1514927288        2.6854266205        1.3032144134
 H         4.1606263968        1.5074302555        0.0952278101
 H         4.9567903702       -2.0160540831        1.7956153573
 H         5.8821910525       -2.5154682374        3.3616447145
 H         6.4109109119        0.1532973538        2.3877451789
 H         6.5011745006        0.3363267130        4.1459123695
 H         6.1159124213        1.7910989796        3.2132274507
 H         2.9604279528        1.1721328529        4.8449281253
 H         4.4536587594        1.9575821614        4.8928116233
 H         3.3541910690        2.4115762371        3.6038535145
 H         3.8260844811       -3.6341982522        4.1041536361
 H         2.8286731893       -3.2398131430        2.9125016896
 H         3.3462614382       -5.9149528700       -1.1359234438
 H         2.2922860844       -4.7648943154       -1.9048357654
 H         4.5355378478       -6.8339462572        0.5918577916
 H         3.0431071559       -7.5995676574        0.7358255779
 H         3.9912340012       -7.1246314691        2.2215181556
 H         1.2825360356       -4.6581470968        2.5757796104
 H         1.0884784347       -6.1429150531        1.5542165852
 H         1.9461500576       -6.1150870516        3.1477968093
 H         4.3935355092       -4.6518808893       -2.7258405766
 H         5.2090879106       -4.4002136975       -1.2089673861
 H         1.1537256180       -1.2329684592       -5.2738718166
 H         2.0911828411       -2.5794469206       -5.7216065122
 H         3.9041245023       -0.2287740172       -4.5331740485
 H         5.0914599989       -0.7938208908       -3.3220840566
 H         3.6750327046       -0.0225076425       -2.8424210829
 H         5.3573287153       -3.0394174373       -4.2953476847
 H         4.0147893248       -4.0624616889       -4.5561482026
 H         4.1734669700       -2.5152921260       -5.5413254636
 H        -0.5824638555       -2.8898747152       -4.4378707463
 H        -0.0040864206       -3.2454024421       -6.0461238507
 H        -3.4113970679       -4.8662484360       -4.9950800670
 H        -2.0345191007       -4.3394481652       -6.0656321346
 H        -2.6059463893       -5.9424393412       -6.1270996334
 H        -0.5626046654       -5.8486485242       -7.0001757709
 H         0.0428406366       -7.3846641310       -6.2692146144
 H         1.0242835935       -6.1199003135       -6.4795884804
 H         0.3434690042       -7.9060083789       -4.1339139815
 H         1.6592679348       -6.9131731235       -3.8077829677
 H         0.3294409838       -6.8040980537       -2.7178961324
 Na        1.7970389621       -1.3227649900       -0.5869671300
