155

 C        -3.5810452494        0.6609508763       -3.8310538935
 C        -3.7702188975        0.7804537466       -2.3441095198
 C        -5.0223469540        0.1452307821       -1.7030437713
 C        -5.9228109082        1.2636739955       -1.0776020162
 C        -5.7948302885        2.7132769643       -1.6947046782
 C        -5.7997748885       -0.6708738991       -2.6718175174
 C        -4.4927461478       -0.8948879408       -0.6402082401
 O        -3.1190640531        1.6155761847       -1.6857424610
 O        -6.5515545939        0.9603078330       -0.1058165623
 C        -6.6303498960        3.5667047728       -0.7630847404
 C        -5.5805406278        3.9135429813        0.4830531715
 C        -5.8788537474        5.0235342513        1.4917325840
 C        -6.4816531204        4.5441157699        2.8764377684
 C        -5.5349844666        4.1759320312        4.1226991722
 O        -4.5252856719        3.3500024801        0.7203675067
 O        -7.6793847846        4.3827048665        2.9460959309
 C        -4.6276162817        5.8940494095        1.6878466693
 C        -7.0412066000        5.9497810937        0.9320325225
 C        -4.0955348484        3.5503206069        3.7691756159
 C        -4.1873827684        2.2239112852        4.4558532426
 C        -2.7572289569        1.3967788954        4.7056188833
 C        -1.8934552805        1.5616233272        3.4174446718
 C        -2.2000015294        0.7332939052        2.1256670444
 C        -1.9386868942        1.9425004490        5.9172248556
 C        -3.0743718425       -0.1466485784        4.9711494728
 O        -5.1556258416        1.6693046655        4.8594422398
 O        -0.9277827309        2.2885194877        3.4677569563
 C        -1.7914834177        1.5197075729        0.8551936633
 C        -0.4264331947        1.0212973179        0.2781567206
 C         0.4911406019        2.1978484893       -0.6013657740
 C         1.8667965369        1.8701327592       -0.0141416990
 C         2.0960729700        2.2857632368        1.4864783814
 O         0.0625826580       -0.0595388240        0.2971772005
 O         2.8035810295        1.5386426617       -0.7119277770
 C         0.2639407842        1.8131170328       -2.0781588013
 C        -0.0137511469        3.6577576372       -0.2652612552
 C         3.4297148261        1.6562860300        2.0987284493
 C         3.0184741538        0.2717742959        2.6516310579
 C         3.1546860835       -0.0306351274        4.1110811135
 C         2.6580333481       -1.5327123253        4.3887400800
 C         3.7991658171       -2.6256430287        4.1582580646
 C         4.5659699232        0.2399165211        4.6466229775
 C         2.2401165130        0.9644453927        4.9192862364
 O         2.4640227974       -0.4637089830        1.8622125456
 O         1.6307722438       -1.8705096194        4.9315489001
 C         3.3056474185       -3.9498483022        3.5823278853
 C         3.8008925918       -4.3321240824        2.1900463353
 C         2.8295101110       -5.1044864878        1.2363619112
 C         2.5754406374       -4.0498828380       -0.0117686351
 C         3.3300076010       -4.2970630254       -1.3462654240
 O         4.9169115853       -3.9707421639        1.8722455778
 O         1.8704913526       -3.1140040875        0.2402872576
 C         3.5466800461       -6.4670853172        0.8302151809
 C         1.4280342925       -5.4783790868        1.8775585462
 C         4.6186769838       -3.3714013173       -1.3919530105
 C         4.2866423037       -1.8657768697       -1.7604964298
 C         4.2013337134       -1.4426092525       -3.2791466771
 C         2.7885676037       -1.2064381581       -3.8018073034
 C         2.4556704574       -0.8526521328       -5.2996593785
 C         4.7864795601        0.0170905804       -3.4196025038
 C         4.9040571253       -2.3587587944       -4.3380647294
 O         4.2915218168       -1.0145817149       -0.8695118490
 O         1.8798238888       -0.7745442204       -3.0542108626
 C         1.2139631488       -1.7501489719       -5.8112970172
 C         1.7137749789       -3.1964522434       -5.8336857224
 C         1.5139176755       -4.0467753621       -7.1468118262
 C        -0.0564982993       -4.3649234840       -7.1036948640
 C        -0.5323982806       -5.8562267991       -6.7109453386
 O         2.3027837317       -3.6865031312       -4.8478811703
 O        -0.8183174244       -3.4848911701       -7.2991808756
 C         1.8103788687       -3.3732879879       -8.4669235639
 C         2.5277681086       -5.2934799183       -7.0369905811
 H        -4.1265450279        1.5578806276       -4.3330979150
 H        -2.5289935231        0.6507984455       -4.0266975072
 H        -3.9974737595       -0.3123674075       -4.2924327576
 H        -4.7400692329        3.1269790333       -1.6899821342
 H        -6.1018299069        2.6385426916       -2.7403815387
 H        -5.1503037392       -1.5168111250       -3.0298822667
 H        -6.3313184384       -0.1181858380       -3.4671757329
 H        -6.7348311628       -1.0536447433       -2.1570808648
 H        -4.0582448724       -0.4224410926        0.1365627022
 H        -5.3604040259       -1.4540965879       -0.3441668181
 H        -3.8388968422       -1.6625266574       -1.0584146630
 H        -6.7735539652        4.5513924518       -1.2523262102
 H        -7.3968320683        3.1028196749       -0.2190746400
 H        -5.4028537431        5.0624573081        4.8136712888
 H        -6.1447453458        3.3966178864        4.5791822411
 H        -3.7168594414        5.3161864289        1.8472351539
 H        -4.7931392043        6.7358532220        2.3224615439
 H        -4.2169340008        6.2929486265        0.7124442486
 H        -7.9893350230        5.5007952667        0.6275677548
 H        -7.2208238700        6.7901724243        1.6897220690
 H        -6.6949888270        6.6238028180        0.1289954071
 H        -3.2722400263        4.1641961430        4.0033523777
 H        -4.0166239361        3.2987799814        2.6747714913
 H        -1.6003048032       -0.1791992813        2.2157210627
 H        -3.2960819000        0.3228756874        2.0841087068
 H        -2.5163771966        1.7633490949        6.8125624578
 H        -1.6530595310        2.9737868131        5.7894540146
 H        -1.0379678326        1.2534749206        6.1421441627
 H        -2.1911313444       -0.6258714666        5.3701677393
 H        -3.8497654229       -0.2738664814        5.7120169023
 H        -3.3319880676       -0.6072607743        4.0356091428
 H        -2.3925871979        1.1954696061       -0.0281450786
 H        -2.0024328068        2.5856749860        0.9268460246
 H         2.2203270217        3.3583280573        1.4116220788
 H         1.1952507992        2.0143441558        2.0966009403
 H         1.0121598002        2.4231487705       -2.6251092528
 H        -0.7565747089        2.0890903394       -2.4192631806
 H         0.5411118416        0.7600474334       -2.1508692147
 H         0.6450660697        4.4193268279       -0.6458568500
 H        -0.9331504635        3.6060304072       -0.7691269634
 H        -0.2671362638        3.7627293256        0.7983654193
 H         3.7660017599        2.2846285346        2.9372504353
 H         4.1710909055        1.6349751315        1.3162773244
 H         4.6847476599       -2.3092604484        3.6172178806
 H         4.1499530825       -2.8777659319        5.1374488662
 H         5.2834444928       -0.1577696977        3.8891496786
 H         4.7409772168       -0.3642846148        5.5529569009
 H         4.7458406383        1.2818637463        4.7524687046
 H         1.3580015057        0.4277692512        5.0458181926
 H         2.5858967097        0.9816189550        5.9399941037
 H         2.2268794002        1.9262258537        4.4833987185
 H         3.6527466329       -4.7642443398        4.3341355902
 H         2.1638422748       -3.9903697580        3.7133964761
 H         3.6293980936       -5.3474956793       -1.2880633543
 H         2.6583713178       -4.1424939457       -2.1577005351
 H         4.6075614775       -6.3091748886        0.6736183675
 H         3.0822716661       -6.9610455113       -0.0644926397
 H         3.5905448391       -7.1577313974        1.6648104016
 H         0.9240318414       -4.5757785285        2.1191910450
 H         0.8049990689       -5.9851723060        1.0755123152
 H         1.3967766278       -6.1258647416        2.7225927978
 H         5.2057309691       -3.7581139585       -2.2271120125
 H         5.2170535271       -3.4004430088       -0.4449845714
 H         2.2801993316        0.2776136023       -5.2834448325
 H         3.1626211352       -0.9489541153       -6.0967268290
 H         4.8288757976        0.2556254245       -4.4866812710
 H         5.6943065224        0.1128855033       -2.8602160616
 H         4.2789301261        0.8101386295       -2.9682571724
 H         5.6906242381       -2.9467022608       -3.7751134673
 H         4.2066213942       -3.0640605740       -4.8596785045
 H         5.5128611698       -1.7901855171       -4.9908392539
 H         0.4038330878       -1.6477583067       -5.0348714403
 H         0.8751552883       -1.3826171078       -6.8677504153
 H        -0.5601580473       -5.7839269817       -5.6087870234
 H        -1.5306306466       -6.0987024333       -7.0038336342
 H         0.1442330428       -6.5932887783       -7.0375139312
 H         2.3481563454       -3.9724441094       -9.1491970354
 H         2.4696386744       -2.4863649047       -8.4421498162
 H         0.9896794809       -3.0765945844       -8.9811552853
 H         2.4807617910       -5.9175706226       -7.9223683301
 H         3.4763827361       -4.8031059354       -6.9629306141
 H         2.4449231744       -5.7579899902       -6.0227186809
 Na        1.9865197555       -0.8797715322       -0.5041870948
