155

 C        -4.8662559692       -0.2056925746       -4.7597672024
 C        -4.3265079874        0.1755252498       -3.3579364240
 C        -4.9225243113       -0.3426362501       -2.0309962793
 C        -5.0322641818        0.8699757340       -1.0920825947
 C        -5.4123924471        2.2258801843       -1.5285740221
 C        -6.3048240661       -1.0941867334       -2.2476177127
 C        -3.9559303613       -1.3545121381       -1.4041548680
 O        -3.3578001440        0.9202948855       -3.2882506810
 O        -4.8881464656        0.6185583294        0.0939988485
 C        -6.4400915344        2.8146100223       -0.5150682843
 C        -5.7592051183        3.5642668849        0.6267678749
 C        -6.6389853656        4.1386068329        1.7796331962
 C        -7.0504810773        2.8694565394        2.6914630100
 C        -6.2054567739        2.5033058824        3.9091446595
 O        -4.5663777892        3.6695262819        0.7958585916
 O        -7.9626284142        2.2010653708        2.2324574991
 C        -5.8658363159        5.3223944932        2.5172409469
 C        -7.9441880367        4.6462530574        1.0771105767
 C        -4.8485261014        1.8968085863        3.5645119378
 C        -4.2381683992        0.8049169078        4.5583213065
 C        -2.6959931338        0.8900777768        4.7889214050
 C        -1.8610937295        1.2498940536        3.5568929254
 C        -2.0617434982        0.4080515156        2.2452819474
 C        -2.5369497523        2.0231241077        5.8149822758
 C        -2.0089001119       -0.4182501909        5.1639117147
 O        -5.0259422667       -0.0096825179        4.9403248285
 O        -1.0900040093        2.1622969962        3.5815340111
 C        -2.1176314696        1.1934037315        0.8935264847
 C        -0.7304221388        1.2387663177        0.2670699657
 C         0.0813797139        2.5576649936       -0.0056017174
 C         1.5793924495        2.3732036760        0.4550224210
 C         1.9868415741        3.0206769432        1.7860617122
 O        -0.2937518437        0.1517469356       -0.1173660499
 O         2.3914372893        1.9254684722       -0.3620533978
 C         0.0382318864        3.0063451032       -1.6390583653
 C        -0.6306405953        3.7359737125        0.7300244891
 C         3.1058921892        2.2637070749        2.5402377951
 C         2.7595001171        0.7942258969        2.7523073337
 C         3.0575575475        0.2276795755        4.1931755821
 C         2.5447679525       -1.3307274794        4.1937670074
 C         3.2053268275       -2.4415834847        3.4005331420
 C         4.6767597133        0.3293267425        4.4841787918
 C         2.2680416471        0.9892956747        5.2427541847
 O         2.2983534924        0.0460931924        1.8885946860
 O         1.4981870946       -1.4882115390        4.8529251574
 C         2.2071165204       -3.0926715885        2.5685089662
 C         2.7518744434       -4.3564131203        1.8906069794
 C         2.0851308149       -4.8714077268        0.5347982570
 C         2.0242453053       -3.6432895185       -0.4743209076
 C         2.7087143803       -3.9800081304       -1.8525394745
 O         3.5761842774       -5.1141406884        2.3965900883
 O         1.3911185693       -2.6409370776       -0.2758251468
 C         2.8955036384       -6.1774102021        0.0949908817
 C         0.6220947825       -5.3491383351        0.8878244050
 C         4.1478142165       -3.5013861012       -1.9538616929
 C         4.2819796383       -2.0463357111       -1.5558326005
 C         4.8799109546       -0.8599296513       -2.4332609214
 C         3.5552246451       -0.5811956967       -3.3038715545
 C         3.8839949692       -0.1687783585       -4.7379583876
 C         5.2711591359        0.3195353064       -1.5779152608
 C         6.0482420976       -1.3519165973       -3.1895675661
 O         3.8894703743       -1.8564427631       -0.4258581447
 O         2.4182907965       -0.7320432284       -2.9242816932
 C         2.8983677910       -0.7711256908       -5.7461157748
 C         3.1572509499       -2.2717274226       -5.8600080442
 C         2.7104927028       -3.2024722207       -7.0541862665
 C         1.1808604674       -3.0277118583       -7.1898021508
 C         0.2306493435       -3.4555526010       -6.1718694788
 O         3.6330199284       -2.8505653112       -4.8754687905
 O         0.7783613281       -2.4653716510       -8.2179644349
 C         3.4596808939       -2.6610277394       -8.3577275617
 C         3.0231369686       -4.6929820150       -6.7660118271
 H        -5.8592161353       -0.6843081506       -4.7923997055
 H        -4.9738120644        0.7858343580       -5.2411177501
 H        -4.0689267844       -0.9043994664       -5.3035065622
 H        -4.5947045608        2.8705770050       -1.3364592450
 H        -5.6316357283        2.2992321342       -2.6262568564
 H        -6.0560629009       -1.9632974381       -2.8113127393
 H        -7.1044504302       -0.5085612784       -2.6178636527
 H        -6.6193896518       -1.4479109325       -1.3282223574
 H        -2.8933396982       -0.8735388442       -1.3360299357
 H        -4.3496532269       -1.4748306851       -0.3430074694
 H        -3.9224748043       -2.3370903936       -1.8317079999
 H        -6.8784023613        3.6707892033       -1.0197896109
 H        -7.2871504600        2.1761059877       -0.2620428270
 H        -6.1297442018        3.4037061570        4.4680624736
 H        -6.6454287381        1.7830661510        4.6336474534
 H        -5.0460150196        4.9669868947        3.0978966549
 H        -6.4847391127        5.9825588076        3.0280120080
 H        -5.2911162176        5.8926857236        1.7600926930
 H        -8.3164013506        3.8986518159        0.4534682884
 H        -8.5738678672        4.9871945129        1.8953771710
 H        -7.7476834791        5.5659552101        0.5900210393
 H        -4.0409191403        2.6856899547        3.4116561551
 H        -5.0163651912        1.2790757584        2.7061062665
 H        -1.3150824951       -0.3706061643        2.1388355927
 H        -2.9247849094       -0.2388286638        2.4551111570
 H        -2.9109422774        1.6797365271        6.7611559762
 H        -2.9736085418        2.9210060358        5.4197162149
 H        -1.4889232622        2.2305094699        6.0157945729
 H        -0.9151018988       -0.3945879883        4.9823631364
 H        -2.0617192087       -0.7158821411        6.1578851491
 H        -2.4161064440       -1.1723587925        4.4081098674
 H        -2.6871612217        0.7467489931        0.0602072874
 H        -2.5355906508        2.1917051434        0.9432828430
 H         2.2909857255        4.0990427158        1.7094499584
 H         1.1894380539        3.0422048774        2.4592971476
 H         0.3831584626        3.9519451133       -1.6682910145
 H        -1.0213327701        2.9987292494       -1.9467447148
 H         0.6533254610        2.3165876162       -2.2386422802
 H        -0.0878814867        4.6842094553        0.6069047078
 H        -1.5104515951        3.8820705870        0.1158113869
 H        -1.0046113509        3.5916624727        1.7741672769
 H         3.3084126666        2.6557895481        3.5112807932
 H         4.0107582413        2.1808448144        1.9454357292
 H         4.0107111063       -2.1250292962        2.7971238294
 H         3.5754806633       -3.1403809538        4.1115531954
 H         5.3327303118        0.1294505533        3.5636896043
 H         4.9811960236       -0.4994357257        5.2133530819
 H         4.9501264191        1.2337960214        4.9608846813
 H         1.2680808412        0.5141561343        5.1734207490
 H         2.5137087292        0.7043390816        6.3388159826
 H         2.3161398684        2.0769164683        5.1449196816
 H         1.3026318569       -3.4643204079        3.2550493020
 H         1.7130820552       -2.4242144479        1.9153807257
 H         2.5816209800       -5.0400470540       -2.1417531488
 H         2.1433806375       -3.4397071438       -2.5365859341
 H         3.9588249915       -5.8480355552        0.0767499179
 H         2.5897224811       -6.7291127051       -0.7870404219
 H         2.7754447312       -6.9251639333        0.8155630383
 H         0.0475656669       -4.4838458902        1.2474983983
 H         0.0704875047       -5.7016524769       -0.0776223383
 H         0.5790964395       -6.1836427366        1.5551260629
 H         4.5139412270       -3.8038350837       -2.9719249349
 H         4.6752763213       -4.1099242855       -1.1818370514
 H         3.7656880170        0.9817757622       -4.6648627847
 H         4.9001425816       -0.3165686109       -5.0135095359
 H         5.3123879869        1.1292997634       -2.3732398572
 H         6.1337614755        0.1358978162       -0.8803772295
 H         4.4757062094        0.5802106624       -0.8916255085
 H         6.7513119780       -1.6855494568       -2.3613957797
 H         5.9420934196       -2.1212271547       -3.9169361786
 H         6.5838872713       -0.5703173244       -3.5614261335
 H         1.8204241059       -0.5752359263       -5.5180939777
 H         3.2013592408       -0.2874916164       -6.7661415650
 H         0.0502908874       -2.6649030160       -5.4245180602
 H        -0.7366055637       -3.8779025651       -6.6415627989
 H         0.6856366243       -4.2997283579       -5.6009806030
 H         2.8618821278       -3.0982620907       -9.1544935946
 H         4.4565135232       -2.9229114212       -8.3880931052
 H         3.3621990780       -1.5941396295       -8.4976356588
 H         2.4993207361       -5.2018464814       -7.5883922309
 H         4.0860945952       -5.0022048811       -6.6918234933
 H         2.5687524508       -5.0004241568       -5.7607685636
 Na        2.0198681328       -0.4172833506       -0.6463468856
