155

 C        -5.1391953268       -0.1242867736       -4.7554342729
 C        -4.5105416278        0.2984956679       -3.3581184718
 C        -5.0387824198       -0.4469155644       -2.0365933691
 C        -5.2218032439        0.6255390522       -0.9691034985
 C        -5.6042488360        1.9733730569       -1.5664129716
 C        -6.4986675952       -1.0495918167       -2.1061849164
 C        -4.0735882529       -1.5999393703       -1.7126459149
 O        -3.5314695983        1.0433280414       -3.3778251555
 O        -5.1274405729        0.3902842676        0.2558016763
 C        -6.3725963526        3.0125694248       -0.6641542785
 C        -5.7788779154        3.3173705376        0.6476226755
 C        -6.7651506995        3.8186503919        1.8019787490
 C        -7.0576627264        2.3846424180        2.6300928746
 C        -6.1742014938        1.9314311889        3.7886711191
 O        -4.5852688556        3.1844345905        0.8574029791
 O        -7.9084848317        1.7052635741        2.1127440162
 C        -5.9124220070        4.7403146753        2.7088107785
 C        -8.1200557106        4.4566577066        1.3235455588
 C        -4.7442500244        1.7313308632        3.3935124463
 C        -4.1143127287        0.6716503758        4.3300101543
 C        -2.6685405494        0.8367845349        4.7027228615
 C        -1.8747424681        1.0861876700        3.4119236450
 C        -2.0834126186        0.2720725888        2.1723678035
 C        -2.3737303935        2.0482744106        5.5873876426
 C        -2.1191667109       -0.4442914232        5.4223106766
 O        -4.8103721062       -0.2154493862        4.7500872104
 O        -1.1237908467        2.0443456876        3.3724555472
 C        -2.2347875523        1.1996352164        0.9616571549
 C        -0.8417078955        1.3962096516        0.2184844190
 C        -0.1602861381        2.7848467928       -0.0949082466
 C         1.3440447506        2.6405058827        0.5254742183
 C         1.5804821449        2.9492268748        2.0785325577
 O        -0.2314921903        0.3723633404       -0.0745339561
 O         2.2820075126        2.1955461910       -0.1070510772
 C         0.0437380059        2.9174646332       -1.6527435828
 C        -0.9676937207        4.0224428224        0.4001166198
 C         2.8883066502        2.2213895834        2.6067210912
 C         2.7106435429        0.6694699382        2.7345837041
 C         2.9907696258        0.1694433364        4.1346494631
 C         2.3734458820       -1.3279724801        4.2638889368
 C         3.1210873617       -2.4441175809        3.4551139883
 C         4.5148365214        0.2054685286        4.4513574302
 C         2.2227828867        1.0515432942        5.1369312909
 O         2.5200415634       -0.1049705363        1.8049910835
 O         1.2943863796       -1.5358625325        4.8172059552
 C         2.4038763217       -3.0059997166        2.2632706114
 C         2.6337821918       -4.4189871986        1.7291044373
 C         1.8501643728       -4.8173083530        0.4802560140
 C         1.7421353268       -3.5923364411       -0.4791949919
 C         2.6918686458       -3.7006518955       -1.7521177817
 O         3.2776995537       -5.2739716857        2.2639439808
 O         0.9480661865       -2.7284711037       -0.3012359153
 C         2.6102365484       -6.0234605826       -0.1461838071
 C         0.4497655206       -5.3393950520        0.8911451933
 C         4.2044722603       -3.4022396742       -1.5441842207
 C         4.5688267315       -1.8932516563       -1.2502140570
 C         4.9324298844       -1.0491615039       -2.4371426249
 C         3.7670448494       -0.5365221380       -3.3189110394
 C         4.2216570457        0.0063370685       -4.7270261288
 C         5.5271570665        0.3491467395       -1.9117222120
 C         6.2242999882       -1.6430196778       -3.1704745555
 O         4.5061302911       -1.4347859875       -0.1198451185
 O         2.6485381266       -0.4731324788       -2.8690817458
 C         3.5577761623       -0.5946411412       -5.9184087255
 C         3.5775157520       -2.1135253237       -5.8296302378
 C         3.0670656720       -2.9553371537       -6.9892017925
 C         1.4821213148       -2.4876024411       -7.1020965651
 C         0.5302941047       -2.9466002432       -5.9660886270
 O         3.8000220583       -2.6268619396       -4.7063769895
 O         1.2012324232       -1.7088780455       -7.9385978369
 C         3.8232803514       -2.7162764621       -8.3458513936
 C         3.0648958064       -4.4775285583       -6.6667617780
 H        -4.9143301443        0.6360518156       -5.5001518862
 H        -4.6594487521       -1.0503032366       -5.0292807427
 H        -6.2655360200       -0.3537752871       -4.7189007838
 H        -4.6594264710        2.4336503071       -1.8024831721
 H        -6.2638386345        1.8884168474       -2.4834486240
 H        -6.4932768503       -1.7493169321       -2.9855641468
 H        -7.2450708225       -0.2809970261       -2.4423932113
 H        -6.7921984741       -1.4863065335       -1.1854635940
 H        -2.9926692610       -1.1939693775       -1.6134590709
 H        -4.4628481040       -2.2051235893       -0.8577772968
 H        -3.9970854204       -2.3088603185       -2.5058202485
 H        -6.3360483850        3.9296384708       -1.2547908032
 H        -7.3962237903        2.7075884834       -0.7097569965
 H        -6.1285456359        2.7204611325        4.5163249860
 H        -6.6838689675        1.0191142830        4.1306798042
 H        -4.8785261130        4.4224360282        2.6476906065
 H        -6.1142176943        4.6247377732        3.7674234893
 H        -6.0176480733        5.8105286548        2.4027765105
 H        -8.6967975413        3.6570409683        0.8658518388
 H        -8.5222251233        4.7555520765        2.3246533286
 H        -7.9123028741        5.3004697464        0.6669665799
 H        -4.3047673134        2.7722448029        3.3095015543
 H        -4.6738349063        1.2636875374        2.4300555371
 H        -1.2894392807       -0.4133662757        2.1418731611
 H        -2.9074355681       -0.4436567818        2.2057167483
 H        -3.0228026073        1.9449800937        6.5078356691
 H        -2.6134618309        3.0473722573        5.0905192127
 H        -1.3720423001        2.0430132702        5.9224559121
 H        -1.2243518060       -0.1465819343        5.9882771175
 H        -2.9099301072       -0.9420212991        6.0492119394
 H        -1.7853544626       -1.3316462694        4.7877357769
 H        -3.0633781169        0.7572829932        0.3693231383
 H        -2.5134386672        2.1932780079        1.2709389459
 H         1.8547022026        4.0306108724        2.2535904886
 H         0.7610666355        2.7465086293        2.7510370014
 H         0.6205685978        3.7942752295       -1.7384071465
 H        -0.9114051884        2.9386178390       -2.1595148313
 H         0.7404396818        2.1407873906       -1.9641897809
 H        -0.6087129016        4.9485623135       -0.0148784850
 H        -1.9588963167        3.9562536689        0.0369083122
 H        -0.9617120340        4.1350315593        1.4747047747
 H         3.3274573491        2.5714524644        3.5729991115
 H         3.5680378701        2.3869393775        1.7299582110
 H         4.0645198420       -1.9831600962        3.1555689407
 H         3.3964776056       -3.3494163660        4.0390070722
 H         5.0134831074       -0.6223800506        3.8639401072
 H         4.7320010329        0.1536529295        5.5453992986
 H         5.0304693528        1.0568886434        4.1227621455
 H         1.3703919263        1.5942206287        4.7444699771
 H         1.9539369093        0.4164158116        5.9916474811
 H         2.8690479356        1.7817115920        5.5814066997
 H         1.2061227439       -2.8672259275        2.3489657198
 H         2.5664378067       -2.3559933140        1.4298631295
 H         2.5283856246       -4.7391649273       -2.1707663007
 H         2.4227477398       -3.0621354085       -2.5529341149
 H         3.6697377818       -5.7343714981       -0.3811077256
 H         2.0256091327       -6.4459806627       -0.9274895883
 H         2.6726304053       -6.8501255343        0.4852119727
 H        -0.2429999300       -4.5128985497        1.1178722668
 H        -0.0446832086       -5.7224986199       -0.0582673015
 H         0.5558611489       -6.0481211900        1.6675938804
 H         4.5386072231       -3.7247880536       -2.5239994363
 H         4.6525157625       -4.0458897557       -0.7977169093
 H         3.9578651043        1.0935810236       -4.6657116000
 H         5.2613333989        0.0250686461       -4.7596830290
 H         5.9952030923        0.7221652659       -2.8327844643
 H         6.1399605328        0.2270628887       -0.9804021757
 H         4.6652937867        0.9995259859       -1.6824715721
 H         6.8000139121       -2.1485335980       -2.3366097926
 H         5.9806257011       -2.3715117886       -3.9172556807
 H         6.9188487377       -0.9309253709       -3.5817355089
 H         2.5945963546       -0.1554943413       -6.0778240882
 H         4.1774461867       -0.4009567962       -6.8356367218
 H         0.8788191244       -3.5408478997       -5.1544172902
 H        -0.0208754786       -2.0593913808       -5.5712586296
 H        -0.1993009097       -3.6076673619       -6.5034159101
 H         3.2660852016       -3.1411945934       -9.2239736572
 H         4.7789351040       -3.0844913459       -8.1752561786
 H         3.8627996292       -1.5891815797       -8.3950522962
 H         2.8272817121       -5.0964327669       -7.5399182009
 H         4.0891643429       -4.8308196279       -6.4027185641
 H         2.3431073064       -4.7199945343       -5.8297177639
 Na        2.0267870259       -0.2977401572       -0.4939188458
