155

 C        -5.5114546478       -0.1827631369       -4.9721975941
 C        -4.9360375393       -0.1402300929       -3.5226738430
 C        -5.8159827937       -0.5988686817       -2.2961760928
 C        -5.8787038792        0.5677336953       -1.2309777090
 C        -6.4772581436        1.9270431708       -1.4866000909
 C        -7.1333343937       -1.1141757512       -2.7964163464
 C        -5.0412126624       -1.8143859129       -1.5925312320
 O        -3.7991454109        0.2235157062       -3.3041004568
 O        -5.4607588541        0.3620347927       -0.1196745209
 C        -7.2725263145        2.5153624968       -0.3187925402
 C        -6.4402051971        3.0734455847        0.8861319945
 C        -7.2788806062        3.1456317173        2.1967649196
 C        -7.4853416563        1.5427430997        2.5612118584
 C        -6.5284665340        0.9247814151        3.6396513582
 O        -5.2302151117        3.1954263915        0.9332032700
 O        -8.4843266651        1.1042186204        2.1788034777
 C        -6.4228779089        3.8915086403        3.2382361052
 C        -8.6563096927        3.7572738060        2.0059291206
 C        -5.1235727843        0.5191758858        3.1056564068
 C        -4.3866776293       -0.4207788947        4.1163747349
 C        -2.9281539898        0.0665328685        4.6242877658
 C        -2.2991892717        0.8908431554        3.5211714366
 C        -1.8061602221        0.1310651277        2.2821195613
 C        -3.1566107506        0.9985987993        5.8253680777
 C        -2.0139296543       -1.2101308948        4.9984662174
 O        -4.7480041521       -1.5591393062        4.3720153140
 O        -2.0511640862        2.1089981445        3.5399147683
 C        -2.0028576959        0.8528614977        0.9719830406
 C        -0.6345843026        1.0640317045        0.2066702195
 C        -0.2046553433        2.5651803678       -0.1030293406
 C         1.3629258565        2.5319409869        0.2296800296
 C         1.6909215624        3.1490479155        1.6734769438
 O         0.0048912991        0.1287113386       -0.3029167591
 O         2.2701042068        2.1659998218       -0.5408534636
 C        -0.3692203794        2.6544606304       -1.7086241842
 C        -1.0508229268        3.6575319269        0.5630967130
 C         2.8316267022        2.4812986924        2.3675608061
 C         2.5327239656        0.9690413873        2.5818152799
 C         2.6765909980        0.3030467390        4.0490539183
 C         2.0859474173       -1.1992637559        4.0681413719
 C         2.6797567512       -2.2140920620        3.0472212374
 C         4.1938755675        0.0894730163        4.3164919815
 C         2.1495290291        1.2389029408        5.1401141426
 O         2.4398171987        0.2590885567        1.6001757392
 O         1.1901513412       -1.4400139933        4.7980862503
 C         1.6070083548       -2.8693689754        2.1210167888
 C         2.2648431600       -3.8948317008        1.1877114603
 C         1.6636421829       -4.3213630960       -0.1686227050
 C         2.5198524894       -3.4185642883       -1.2398894832
 C         3.7945635597       -3.9201382802       -1.8301229503
 O         3.4652749117       -4.1703054849        1.3873778311
 O         2.1613492288       -2.3670645832       -1.7263859149
 C         2.0379734158       -5.7703118460       -0.2992315344
 C         0.1207866716       -4.1838704297       -0.3563671605
 C         5.0772764608       -3.4069445633       -1.0983862772
 C         4.9368309784       -1.9587266309       -0.7906281708
 C         5.8104051508       -0.9273616490       -1.6374168777
 C         4.8568135805       -0.2945282401       -2.7796607982
 C         5.5950691226        0.3239755407       -4.0893850011
 C         6.2263998313        0.2820814214       -0.7125031057
 C         7.0538638983       -1.5752689523       -2.1485236851
 O         4.1692826663       -1.6184082852        0.0797498395
 O         3.6499042964       -0.1115350126       -2.6116436189
 C         4.7688005892       -0.0283872122       -5.2901819722
 C         4.4355688006       -1.5114686996       -5.2651987385
 C         3.5845099305       -2.0787345005       -6.5309375971
 C         2.3049318973       -1.0176674673       -6.6355481280
 C         0.9255499033       -1.5455653106       -6.8117991238
 O         4.6549203178       -2.2505261915       -4.3288204470
 O         2.4583329090        0.1727445131       -6.6081041100
 C         4.3010349498       -1.9540264483       -7.8906159859
 C         2.9910464713       -3.4990850147       -6.2088180552
 H        -6.3082461977        0.6757112483       -5.0347972110
 H        -4.7138145156       -0.0316317492       -5.8028676059
 H        -5.9078758576       -1.1393786728       -5.1051630592
 H        -5.5181112958        2.4815834443       -1.7252891195
 H        -6.9304372372        1.9674399205       -2.4895512454
 H        -6.9235121513       -1.9283676086       -3.5204148589
 H        -7.6787302673       -0.3875215250       -3.4442263060
 H        -7.7845771781       -1.4018074440       -2.0322174087
 H        -4.1749779307       -1.4370485796       -1.1415672406
 H        -5.6482206438       -2.4396478707       -0.9979910098
 H        -4.6593501681       -2.4410384933       -2.3968377719
 H        -7.9589126273        3.2891295331       -0.5022865132
 H        -7.8808481630        1.6317903801        0.0743754150
 H        -6.4362639514        1.6806873068        4.4325393141
 H        -7.0439885492        0.1214695522        4.2012618648
 H        -5.4277807161        3.3859154870        3.2650034279
 H        -6.9561819136        3.9137377675        4.1725404320
 H        -6.2558319593        4.9950642938        3.0373444280
 H        -9.3264169288        3.0319923178        1.5348361940
 H        -9.0315327952        4.1782070368        2.9982944823
 H        -8.5448893912        4.5573084577        1.2763975144
 H        -4.5898367095        1.3862446339        2.7209807921
 H        -5.4450743410       -0.1637923484        2.3064885993
 H        -0.7673143032       -0.3266873101        2.2991677108
 H        -2.4178660305       -0.7103755909        2.2385417002
 H        -3.5680886092        0.3487218044        6.6258716869
 H        -3.8661635983        1.7978484187        5.5618683196
 H        -2.2858203632        1.3901601553        6.2360044339
 H        -0.9767260794       -0.9296392430        4.9860159215
 H        -2.1970066135       -1.5185512834        6.1464593451
 H        -2.1744044694       -2.0625132114        4.3009952208
 H        -2.5413712482        0.1610815546        0.3092669978
 H        -2.6839556404        1.6754971780        1.1357681409
 H         1.9309739251        4.2548383303        1.5099883944
 H         0.8591865722        3.2043891027        2.3660979912
 H        -0.1370764551        3.6882834205       -2.0823801055
 H        -1.3581158530        2.2777452017       -1.9286940872
 H         0.3464753991        1.9644659738       -2.1770898362
 H        -0.7591366660        4.7157093933        0.3927232741
 H        -2.0662374231        3.5930750902        0.1599238420
 H        -1.1925805884        3.6293193575        1.6898053693
 H         3.1421059338        2.9486648685        3.3437290150
 H         3.7683780706        2.5871272323        1.6496283267
 H         3.4567674544       -1.8438383314        2.3254794937
 H         3.0750950852       -3.1315914279        3.6093829368
 H         4.5997320916       -0.6246887351        3.5667638316
 H         4.2362191104       -0.3620166202        5.3072069987
 H         4.7929642011        0.9137620094        4.2977625536
 H         1.1202724514        0.9930294225        5.3617760425
 H         2.5456122933        1.2051605407        6.1411949706
 H         2.2044138538        2.2182029543        4.7471998885
 H         0.8093659046       -3.3586339549        2.7321733573
 H         1.2703067718       -2.2203760979        1.4386500932
 H         3.8417213275       -5.0351154927       -1.7031816204
 H         3.7141553991       -3.7858680958       -2.9152466732
 H         2.9866031396       -5.9688326865        0.2937951679
 H         2.0251242935       -6.0340007727       -1.3584096922
 H         1.2265198091       -6.3481075760        0.0083419489
 H        -0.1684701632       -3.2077408534       -0.6144972863
 H        -0.1328126963       -4.7353424672       -1.2946785530
 H        -0.3200782660       -4.6082593991        0.4531495363
 H         5.9856353547       -3.7017655826       -1.5884831655
 H         5.0124782754       -3.8923626481       -0.1463848396
 H         5.6507726202        1.4049843490       -4.1451449781
 H         6.5811713447       -0.0302931284       -4.1081845169
 H         6.7938115014        0.7840751947       -1.3766449909
 H         6.6765907074       -0.0271941421        0.1751358148
 H         5.4139033418        0.9155299955       -0.4132581543
 H         7.7190825058       -1.8503697270       -1.2821264778
 H         6.7986312677       -2.3317967930       -2.8655509625
 H         7.7727828564       -0.9044485550       -2.6469812658
 H         3.8614295340        0.5228497000       -5.2392010300
 H         5.2486875121        0.3553720144       -6.2079659196
 H         0.4564457207       -1.7874496461       -5.9233129729
 H         0.2479135899       -0.9580512569       -7.4389603204
 H         0.8294576795       -2.4853450896       -7.3198362118
 H         3.6387208387       -2.3475110803       -8.5667025492
 H         5.3555576685       -2.4886223430       -7.8150581231
 H         4.5122870451       -0.9171712505       -8.0088739442
 H         2.9130481332       -4.1385685237       -7.0160246132
 H         3.6647768551       -3.9755909276       -5.5819075265
 H         2.0343165974       -3.5578799223       -5.7375915901
 Na        2.3910803839       -0.2121934189       -0.7644377774
