155

 C        -5.6395479435       -0.2166411216       -4.9303314313
 C        -4.9571889033       -0.1645522137       -3.5516048544
 C        -5.8496190581       -0.5717516978       -2.2409698527
 C        -6.0029786481        0.4816995663       -1.1235758982
 C        -6.1669340568        1.8957257670       -1.3979015210
 C        -7.2653693717       -0.9581535530       -2.6133106044
 C        -5.0399304287       -1.8416644193       -1.8289289147
 O        -3.7897404969        0.0918437947       -3.3799939939
 O        -6.1159412305        0.0808557666        0.0232671190
 C        -7.1524986331        2.5711688926       -0.3555410160
 C        -6.4983361770        2.7481678447        0.9774426021
 C        -7.3749656523        2.8019389128        2.2633093854
 C        -7.7522397353        1.3587569527        2.7224279607
 C        -6.7464217292        0.5926112118        3.7418803123
 O        -5.2855289452        3.0702539418        0.9854703970
 O        -8.8004062289        0.8467160904        2.4831542198
 C        -6.4831987002        3.5143254260        3.2666360771
 C        -8.7419360385        3.4911861406        2.0954624948
 C        -5.1755835353        0.6643176501        3.3679439476
 C        -4.3635010549       -0.5409267965        3.7546961120
 C        -3.0696538347       -0.1248273457        4.4966798467
 C        -2.3153760201        0.7213925486        3.4392844774
 C        -1.9922195598       -0.0057035767        2.0669373775
 C        -3.2606880006        0.8745164367        5.6216406002
 C        -2.2963248514       -1.3333965795        4.9356205063
 O        -4.6842641557       -1.6887723057        3.6147574408
 O        -2.0790124887        1.9191044541        3.5450267289
 C        -2.2399938435        0.8000770856        0.8080516128
 C        -0.8410166299        1.0879296622        0.2135984475
 C        -0.2625118862        2.5473268006       -0.2485836063
 C         1.2128399630        2.6236474700        0.3853035482
 C         1.3342757394        2.9913897982        1.9388682666
 O        -0.1136005442        0.1376109195        0.0110518614
 O         2.1348455201        2.3698003725       -0.3806441836
 C        -0.1506882556        2.4414442784       -1.7702760813
 C        -1.2119762988        3.6970566407        0.2556198769
 C         2.7414002902        2.5267417505        2.4489778280
 C         2.6574530968        0.9595009268        2.5276541493
 C         2.7181097186        0.3925136149        3.9917686115
 C         2.0944764469       -1.1444171018        3.8691356809
 C         2.8856783294       -2.1013364855        3.0009715602
 C         4.2087224202        0.4227785634        4.3846092848
 C         1.8854089629        1.3000439448        5.1065215779
 O         2.4731553645        0.2181118506        1.5588703768
 O         0.9858412978       -1.3921838980        4.2874384086
 C         2.0263440450       -2.5986091541        1.8259053604
 C         2.5807144706       -3.7826305592        1.0059359654
 C         1.8355431816       -4.1976630727       -0.4330042215
 C         2.5246496753       -3.4681372266       -1.5622145105
 C         3.9086845563       -3.9832677490       -2.0124308951
 O         3.3427562410       -4.5966612034        1.5595362072
 O         2.0450107252       -2.3923205704       -1.9307830934
 C         1.9602429513       -5.7494409537       -0.5641124927
 C         0.2592233725       -3.9008003391       -0.2749879847
 C         5.1288225127       -3.5234401099       -0.9963614351
 C         5.0753389040       -2.0178335363       -0.6781108802
 C         6.0160310900       -0.9450645295       -1.2612332173
 C         5.2433666293       -0.1872984495       -2.5557475472
 C         5.9710059126        0.3089311800       -3.8723019174
 C         6.3792343456        0.1793074707       -0.3028071238
 C         7.3248708115       -1.6832730150       -1.6502482252
 O         4.1502907320       -1.6172100786        0.0224545980
 O         4.0206064240        0.0677723304       -2.4423122048
 C         5.1299854351        0.1729981194       -5.1041329897
 C         4.6214292810       -1.2732065684       -5.2456654597
 C         3.6044028736       -1.6946875468       -6.3373205025
 C         2.3424581362       -0.6900388828       -6.5868833149
 C         1.0392068161       -1.2922808552       -7.1153983931
 O         5.0449533655       -2.1164376180       -4.4602314455
 O         2.5547895959        0.5193797434       -6.4559941138
 C         4.4241569842       -1.5599335943       -7.7306034481
 C         3.2478907280       -3.1406295186       -6.0895526933
 H        -6.5119658839        0.3667960020       -4.9503976528
 H        -4.9421099928        0.0958826692       -5.6968239775
 H        -5.8550811134       -1.3291760561       -5.0795174426
 H        -5.2161871860        2.4021120893       -1.5089355021
 H        -6.4686528507        1.9935526135       -2.4398335196
 H        -7.3874654293       -1.5250574774       -3.5000555147
 H        -7.8712298870       -0.1029691869       -2.7581435360
 H        -7.6055701827       -1.5513590854       -1.8252380863
 H        -4.0716003958       -1.6589629933       -1.9983347567
 H        -5.2405184670       -2.1370264561       -0.8473931255
 H        -5.3030682349       -2.7124068174       -2.4692261419
 H        -7.5730526347        3.4060485456       -0.8639534999
 H        -7.9620856974        1.8499067030        0.0347803549
 H        -6.8867303490        1.2176704671        4.6355399906
 H        -7.1855762047       -0.3850272931        3.9691807156
 H        -5.5152413268        3.0815178268        3.2230950075
 H        -6.7229082238        3.2577040357        4.2658104595
 H        -6.4408848819        4.5870589408        3.0589123029
 H        -9.4432162704        3.0332032952        1.4255091405
 H        -9.2936090529        3.4970907662        3.0346753367
 H        -8.5054308460        4.4597776697        1.7186712136
 H        -4.8940180776        1.6429759843        3.8173464687
 H        -5.0237498242        0.8008907804        2.2907474128
 H        -0.9361065731       -0.4352662792        2.0121251225
 H        -2.5162746263       -0.9044129900        1.9157876333
 H        -4.1482913501        0.5393856508        6.1572236972
 H        -3.4563205447        1.8811464209        5.2245152907
 H        -2.4749228792        0.9408535289        6.2620039020
 H        -1.5594849848       -1.0126213111        5.6739404116
 H        -2.9523031571       -2.2366320324        5.1159891127
 H        -1.6818420746       -1.6927896404        4.1617186658
 H        -2.7515257123        0.0511168299        0.2014785911
 H        -2.9815025196        1.5705954343        0.9003827733
 H         1.1472678050        4.0784343506        2.2557114881
 H         0.5821010782        2.4800797089        2.5255160188
 H         0.5127380192        3.3449086981       -2.1436562256
 H        -1.1137245641        2.4545314269       -2.2513806752
 H         0.4514135922        1.5552120965       -1.9798358042
 H        -0.9150422876        4.6954437982       -0.0331411677
 H        -2.2376777611        3.5960304837       -0.0637831384
 H        -1.3305502872        3.7451912759        1.3493449775
 H         2.9049212011        2.8680329797        3.5027505282
 H         3.5399315953        2.7184299989        1.6696594766
 H         3.8423018356       -1.6169021745        2.6402314516
 H         3.1495313966       -2.9688819882        3.6742688537
 H         4.8101197109        0.0117408093        3.5408280094
 H         4.3088136341       -0.1179069448        5.3430164317
 H         4.5765767201        1.4102935210        4.5211149193
 H         1.2236240933        2.1559717547        4.7323689574
 H         1.4195844315        0.6501416930        5.8242401933
 H         2.6910751009        1.8238462181        5.7444863395
 H         1.1920825603       -2.9997904683        2.4165058993
 H         1.6967576433       -1.7481765269        1.2247304393
 H         3.9439396228       -5.1344848001       -2.0480180271
 H         4.1645533734       -3.7215069378       -3.0257628742
 H         3.0562728522       -6.0637281701       -0.4705868253
 H         1.3340038781       -6.0121436210       -1.4292466250
 H         1.4820869957       -6.2592169326        0.2708239844
 H         0.1054321296       -2.8493896446       -0.1145627674
 H        -0.2315780071       -4.1687964036       -1.2377727890
 H        -0.1120550941       -4.4779872635        0.5249851355
 H         6.0430165619       -3.8726065981       -1.4154289898
 H         4.9848354411       -4.0477631061       -0.0768277775
 H         6.3548105959        1.3142604143       -3.6547140477
 H         6.7823318386       -0.3391811494       -3.9566356403
 H         6.9556154748        0.8580179188       -0.8441525291
 H         6.8088308440       -0.2031435169        0.6100505350
 H         5.4625968381        0.6958408842        0.0903315032
 H         7.6540273906       -2.0655745943       -0.6885493894
 H         7.2065468372       -2.5304703976       -2.2992091688
 H         8.1698746540       -1.0859932461       -2.2058046798
 H         4.4031970089        0.8960400479       -5.1380812815
 H         5.7675149991        0.3426023756       -5.9553717638
 H         0.6980853408       -2.2403298334       -6.7602718749
 H         0.1244516009       -0.7224453390       -7.0909187449
 H         1.0994848014       -1.5831763388       -8.1924342582
 H         3.8127755114       -1.9236226104       -8.5875221835
 H         5.4521953426       -2.0216662225       -7.6692284126
 H         4.4803970768       -0.4259409120       -7.7746679562
 H         2.3306403203       -3.5198127369       -6.5447364121
 H         4.0116675508       -3.8226760653       -6.4944141830
 H         3.2040595811       -3.4112312846       -5.0241843798
 Na        2.1715878420       -0.0244561808       -0.8614290746
