155

 C        -5.2766149548       -0.4177930273       -5.0514741597
 C        -5.0002105605       -0.1651002971       -3.5248511236
 C        -6.1786651843       -0.6786859169       -2.5497739334
 C        -5.8909553331        0.2057009709       -1.2805066019
 C        -6.4834898400        1.5793941147       -1.1574536631
 C        -7.5408267296       -0.4881392242       -3.2008927021
 C        -5.9271554258       -2.2140919825       -2.1743990123
 O        -4.0085468305        0.3915191429       -3.1575406531
 O        -5.2174312291       -0.2288524476       -0.3754771218
 C        -7.6054965085        1.6001986566       -0.1010703057
 C        -7.1371359677        2.4622698426        1.1276049236
 C        -7.7722679977        2.4202470746        2.6865863808
 C        -7.6793535584        0.9332188628        3.2283355089
 C        -6.5132171296        0.3872599912        3.9905541842
 O        -6.3374450192        3.3939152950        0.8684355068
 O        -8.5252756127        0.1600604265        2.7743390105
 C        -7.1649987383        3.4874960170        3.7614576738
 C        -9.2903608133        2.7678231964        2.4632219387
 C        -5.2751801051        0.1619425134        3.0642739955
 C        -4.4929084740       -1.1149973543        3.6033755677
 C        -2.9181421618       -1.0521853029        3.7100204679
 C        -2.4862520850       -0.2741802317        2.5453113019
 C        -2.2574596861       -1.1339753279        1.1872187921
 C        -2.4272788573       -0.3020980121        5.0156783937
 C        -2.3439215754       -2.4865358239        3.7160195527
 O        -5.1264751418       -2.1157536017        3.9655153936
 O        -2.4283042653        0.9391256266        2.4324389211
 C        -2.0319549949       -0.0767358893        0.0586040425
 C        -0.5671607206        0.4239866851        0.0917806868
 C        -0.1595687462        1.7951866621       -0.6499352259
 C         0.9830899048        2.2468527036        0.2495615452
 C         0.7454007480        2.6797245494        1.7055839600
 O         0.3553274600       -0.1966893071        0.6081787195
 O         2.1505359122        2.2805059252       -0.1214044297
 C         0.2624417576        1.4392691154       -2.0573969828
 C        -1.3116055387        2.7754927353       -0.6150687255
 C         1.9181179865        2.7763647277        2.6865992082
 C         2.5991506195        1.3824044661        2.9093794246
 C         2.2770843353        0.4857689801        4.1734355449
 C         1.4492328313       -0.6818569681        3.4283977836
 C         2.1874570195       -1.9664478076        2.9571865553
 C         3.5066653567        0.2138269815        5.0003538263
 C         1.2786315108        1.1077150034        5.1999544387
 O         3.3232687243        0.8596909625        2.0821388617
 O         0.2441824614       -0.6042540131        3.4073722371
 C         1.3949186429       -2.7497879818        1.9444858795
 C         2.3328837578       -3.8055207015        1.1713944509
 C         1.8155384593       -4.1940794511       -0.4355397380
 C         2.2180360948       -2.9321725302       -1.3065242331
 C         3.4695007814       -3.0296754532       -2.2736547378
 O         3.3209361862       -4.2991598271        1.5508397528
 O         1.6316504889       -1.8674997107       -1.2477304197
 C         2.5814922540       -5.4588680253       -0.7743418778
 C         0.3226786673       -4.4104493406       -0.4754859977
 C         4.7779494996       -2.9442935018       -1.5974324509
 C         5.0031593520       -1.7780407470       -0.6263646721
 C         6.0731326901       -0.6923683951       -0.9929733339
 C         5.4328478062        0.2100432642       -2.0947984662
 C         6.3531098955        1.0381919719       -2.9831536118
 C         6.3215980791        0.2201329707        0.2211378359
 C         7.3387270143       -1.3110580729       -1.5938349378
 O         4.3345746651       -1.6375114793        0.3771749674
 O         4.2343637933        0.4695220221       -2.0409200474
 C         5.6914946983        1.0955331052       -4.4097627076
 C         5.3307769601       -0.3102331993       -4.9772611061
 C         4.6009417019       -0.4969452374       -6.4456142928
 C         3.1913806921        0.2139342644       -6.2484301869
 C         2.2534158840        0.5837114474       -7.4789864643
 O         5.6009626462       -1.3291511275       -4.3571346120
 O         3.0100319586        0.7178534057       -5.1487002945
 C         5.2755107703        0.3657786579       -7.5431687556
 C         4.5137742103       -1.9726126782       -6.8267306808
 H        -5.9736638696        0.3192907560       -5.4170477610
 H        -4.3302298727       -0.3082871004       -5.6067514885
 H        -5.6148624127       -1.4451047989       -5.1806739514
 H        -5.7279432395        2.3131513915       -0.8066235093
 H        -6.8730514893        1.7833199347       -2.1185869847
 H        -7.4868183467       -0.9466043011       -4.2288216038
 H        -7.8506873645        0.5805146981       -3.4358889923
 H        -8.2677277197       -1.1396118782       -2.7116557269
 H        -4.8509820237       -2.3420557916       -2.0442721841
 H        -6.5860933433       -2.5296008690       -1.3642282321
 H        -6.2934110047       -2.8454897366       -3.0414423662
 H        -8.5723684765        1.9865054039       -0.4913947254
 H        -7.8754464753        0.6295124158        0.3494053870
 H        -6.0499479121        1.0199419129        4.7695053727
 H        -6.8104921045       -0.5450143250        4.4567374286
 H        -6.2299596375        3.1376278983        4.2284956890
 H        -7.8289473283        3.8047648792        4.5343825198
 H        -7.0553050158        4.4907847302        3.3046356784
 H        -9.8840479506        1.9576761486        2.0486375076
 H        -9.7427849387        2.8474064899        3.4820986780
 H        -9.5768912187        3.5994655752        1.8523930332
 H        -4.7293652354        1.0703089381        2.9374422429
 H        -5.6572584485       -0.1627939792        2.0412678047
 H        -1.5030502053       -1.9315277629        1.2324906613
 H        -3.3073797793       -1.4934591610        1.0565330480
 H        -2.2109521253       -1.1485125791        5.7261803418
 H        -3.1942430947        0.3825396423        5.4875337018
 H        -1.5325627810        0.1846875136        4.7274746039
 H        -1.2090405121       -2.2656352802        3.6744524185
 H        -2.6283905745       -3.0473247685        4.5962164530
 H        -2.6638608877       -2.9364034511        2.8260668272
 H        -2.3779308324       -0.2456483146       -0.9674726556
 H        -2.6604357993        0.7037679418        0.4660795921
 H         0.2476975945        3.6008106636        1.6930065557
 H         0.0878297154        1.9043940931        2.1369281162
 H         1.0083669666        2.2290476886       -2.4928622690
 H        -0.5607053565        1.2071945290       -2.6703358767
 H         0.8225580974        0.4967514948       -2.0903229319
 H        -0.8264825631        3.7317557300       -0.7364012562
 H        -1.9541344335        2.5518892724       -1.4157133659
 H        -1.8678924488        2.7906054336        0.3159186370
 H         1.5619914921        3.1832856409        3.6578991021
 H         2.6964601842        3.5558241010        2.3782583370
 H         3.0730817628       -1.5495324070        2.3969641084
 H         2.6186794604       -2.5093133153        3.8211386507
 H         4.4430503134       -0.1323867827        4.4680656100
 H         3.1519547634       -0.4511212886        5.8207813631
 H         3.7257405353        1.1089517396        5.4902458282
 H         0.2678419436        1.1233600403        4.7236281935
 H         1.3336015434        0.5428188812        6.1129344320
 H         1.4924359319        2.2233403907        5.3973856884
 H         0.4993274253       -3.1372049912        2.4086906719
 H         0.9149731926       -1.9704396325        1.2775476369
 H         3.2716520671       -3.9999829968       -2.7998261701
 H         3.5115669262       -2.2350516291       -3.0661018959
 H         3.6318730011       -5.4480409608       -0.4070863482
 H         2.4088071435       -5.6938581930       -1.8314886606
 H         2.1918396850       -6.3413712313       -0.3627087574
 H        -0.2115284937       -3.4357126157       -0.4000913681
 H        -0.0481545867       -4.8330775028       -1.4820951138
 H        -0.0822538922       -5.0849124887        0.2686295732
 H         5.5804773506       -2.8330520134       -2.3057215392
 H         5.0938359495       -3.8180064072       -1.0067417531
 H         6.4910324391        2.0568397048       -2.6552117159
 H         7.3658823511        0.6572999462       -3.0878627112
 H         6.9715401170        1.0804740556       -0.0039706827
 H         6.4918406394       -0.4030865939        1.1357552691
 H         5.3791680452        0.7172908826        0.5792166074
 H         7.6489112119       -2.2321522822       -1.0837790935
 H         7.3230444232       -1.5227466632       -2.6509577069
 H         8.1668747372       -0.4820118777       -1.5078295119
 H         4.8300844369        1.7411229580       -4.3276710630
 H         6.3868266548        1.5723846452       -5.0477858893
 H         1.9916883951       -0.3634153667       -7.9347592153
 H         1.2595231407        0.8822788857       -7.1802707393
 H         2.6237892737        1.3150871723       -8.3025059293
 H         5.0810215818       -0.0119658282       -8.6406983993
 H         6.3122399956        0.4266521667       -7.4994315372
 H         4.9936962998        1.4859252593       -7.5292814542
 H         4.2969911992       -2.0145353167       -7.9000823050
 H         5.5335064376       -2.3388643397       -6.6350153449
 H         3.7598983250       -2.5795641049       -6.2585792928
 Na        2.7423692157       -0.1761711811       -0.1772372687
