155

 C        -4.8396923031       -0.6464432335       -4.9854416760
 C        -4.8016395293       -0.1335902766       -3.5551453034
 C        -6.0305682037       -0.5822076974       -2.6688518187
 C        -6.0149783399        0.2358799941       -1.2800624058
 C        -6.6414346621        1.6324773192       -1.2091960801
 C        -7.4198876202       -0.3457074344       -3.3864530273
 C        -5.7577021243       -2.0969552220       -2.4094891741
 O        -3.8008402171        0.4494519078       -3.0819711352
 O        -5.4399659535       -0.2167790458       -0.3094081045
 C        -7.7127253318        1.6450973797        0.0125550046
 C        -7.0521641023        2.2624368432        1.3224907351
 C        -8.0370593562        2.2386793734        2.6693185173
 C        -7.8748532243        0.6116473724        3.3430506724
 C        -6.5935865498        0.3056275887        4.2450176958
 O        -5.9456790742        2.6483654862        1.3492937729
 O        -8.7309522430       -0.1892653419        3.0809413764
 C        -7.4722891145        3.1434875689        3.9033067087
 C        -9.5038672115        2.3083807871        2.4212023338
 C        -5.2030383542        0.2188594682        3.4644100166
 C        -4.6486055748       -1.1913763425        3.2761415789
 C        -2.9581801147       -1.3813545675        3.1331886987
 C        -2.5019079889       -0.5674537526        1.8871911942
 C        -2.5688147337       -1.4201036770        0.4224836809
 C        -2.2958536593       -0.8525695933        4.4525274441
 C        -2.7378739473       -2.8531307420        2.9839774933
 O        -5.2971120611       -2.1525057781        3.4230539258
 O        -2.2283478876        0.5983409073        1.7867119382
 C        -1.9764178172       -0.4533707066       -0.6621221106
 C        -0.7398425411        0.3093965415       -0.1456898872
 C        -0.6078750684        1.8483539721       -0.5952634798
 C         0.5386920870        2.4604883256        0.3511662938
 C         0.3292734500        2.3858085137        1.8496877888
 O         0.1517581300       -0.3238103861        0.3397162647
 O         1.6189912134        2.7165222449       -0.1419587603
 C        -0.2655499173        1.9012311656       -1.9901614521
 C        -1.8776084303        2.8151288434       -0.3618258794
 C         1.6338411058        2.7447738311        2.6445822426
 C         2.4610737906        1.4052371500        2.8691959021
 C         2.1115136893        0.4216434532        4.1018799760
 C         1.4848948822       -0.7940582923        3.3138981395
 C         2.2980663895       -1.9898636088        2.8898264949
 C         3.4147323869        0.2233938233        4.9265162884
 C         0.9375784574        0.8913026323        5.0113237785
 O         3.1787282016        0.9774043494        1.9731467970
 O         0.2870732592       -0.8269433308        3.0376377592
 C         1.5889336115       -3.0002333867        1.9823570463
 C         2.4399069949       -4.1439548420        1.4169594799
 C         2.1019994401       -4.6243950600       -0.1461633512
 C         2.5121697722       -3.3529509632       -0.9320596646
 C         3.6948924592       -3.4318559268       -1.8731930081
 O         3.4230784048       -4.6436647489        2.0133580041
 O         1.8096759648       -2.3732864317       -0.9134028954
 C         2.8349251196       -5.9740647988       -0.3473801864
 C         0.5974405457       -4.8236316017       -0.3942131676
 C         5.0651630346       -2.9672774283       -1.5818341223
 C         5.2013407650       -1.7739030606       -0.6505619684
 C         6.1047916730       -0.5075270638       -0.8806405450
 C         5.3239151811        0.5681725183       -1.6450005230
 C         6.0479073064        1.6409474210       -2.5586435581
 C         6.2954081197        0.0666482137        0.6149955432
 C         7.5098248391       -0.9414830925       -1.6109212623
 O         4.3975930877       -1.7371448582        0.2633971816
 O         4.1449886919        0.6950931796       -1.3195375623
 C         5.3818948514        1.7310824438       -3.9628481173
 C         5.5932096761        0.4123236567       -4.8348469680
 C         5.1770049126        0.5516013580       -6.3505355035
 C         3.5748875918        0.7555024238       -6.4242285873
 C         2.9705658746        1.2853906589       -7.6905278081
 O         6.0883239046       -0.5942835310       -4.2638446501
 O         2.8911249734        0.4232371558       -5.5124038839
 C         5.9582547707        1.7243480167       -6.9901347746
 C         5.3495705025       -0.8319227203       -7.1387471707
 H        -5.4163855653       -0.0607349920       -5.6643536596
 H        -3.9094971020       -0.7857106558       -5.3196654311
 H        -5.2790063608       -1.6032868901       -4.8782989037
 H        -5.9134528734        2.4144150707       -0.8622803592
 H        -7.0223218819        2.0899288249       -2.0961430418
 H        -7.5987023617       -1.0927432881       -4.0763312164
 H        -7.4191064205        0.5296451496       -3.9133926769
 H        -8.2345293906       -0.1454191875       -2.6764814100
 H        -4.7000848893       -2.3267416188       -2.0906522425
 H        -6.4708309105       -2.4632946422       -1.6002069525
 H        -5.9429310678       -2.6206259103       -3.3322959349
 H        -8.6447937315        2.1723555087       -0.2057225474
 H        -8.0008628554        0.5670585689        0.1688845250
 H        -6.4817040924        0.9760831787        5.1347578990
 H        -6.8370078316       -0.6882379622        4.6158353619
 H        -6.7331693986        2.5567306286        4.3874058492
 H        -8.3009491857        3.2338479174        4.6179021168
 H        -6.8860987177        4.0285993586        3.6378869182
 H        -9.8800170267        1.5473797114        1.7213653045
 H       -10.0882080331        2.4001427910        3.3175531737
 H        -9.8367717846        3.2682649845        2.0207159840
 H        -4.5282284919        0.8682325442        3.9499489199
 H        -5.2181999966        0.6790506969        2.4522956877
 H        -1.8957172354       -2.2726282448        0.4905507461
 H        -3.5809160409       -1.6751701885        0.1779369544
 H        -2.7781751343       -1.3545946332        5.2621735105
 H        -2.3208357227        0.2322515668        4.5263920735
 H        -1.2775824571       -1.2463553634        4.3969232478
 H        -1.7686253801       -2.8991350059        2.6845877328
 H        -2.8951669611       -3.4112933134        3.8694826328
 H        -3.3250522697       -3.2731087151        2.1504884196
 H        -1.4589923808       -1.0313306936       -1.4625617790
 H        -2.7465597239        0.0583002241       -1.2229538503
 H        -0.3721545381        3.2014778218        2.0342841862
 H        -0.2160206265        1.4413727801        2.1319285664
 H         0.1123226263        2.8292577190       -2.2824816606
 H        -1.2050517238        1.9206474354       -2.6079709190
 H         0.4069849337        1.1887587059       -2.3894905516
 H        -1.6704857293        3.7043465550       -0.9876436781
 H        -2.7765414727        2.3375878602       -0.8313659835
 H        -1.9121284461        3.0773668390        0.6938635245
 H         1.2544658106        3.1972051006        3.5414879551
 H         2.2113660429        3.3735954192        2.0684766802
 H         3.2051087303       -1.6379279628        2.4283455323
 H         2.6579642278       -2.5727254093        3.6559878848
 H         4.2736726665       -0.1138267591        4.4520399021
 H         3.2352827996       -0.4939625701        5.7314133028
 H         3.5488485272        1.2287272042        5.3757856198
 H        -0.0520342464        0.6380409581        4.7322438302
 H         1.1592606030        0.3264268729        5.9623633117
 H         1.0562240964        1.8579503256        5.3810046964
 H         0.8764409572       -3.4950659390        2.5715119398
 H         1.0832700504       -2.4771813717        1.0671685804
 H         3.7280115316       -4.5561110943       -2.0265658522
 H         3.4325722589       -3.0045943172       -2.7978521419
 H         3.8405780707       -6.1196516427       -0.1301483014
 H         2.7194268718       -6.3383185965       -1.3849406248
 H         2.2120885480       -6.6763587180        0.2768313616
 H        -0.1072228370       -4.0426353353       -0.2409754765
 H         0.4867673586       -5.1313701981       -1.3563149122
 H         0.1560356729       -5.6234824942        0.2161353424
 H         5.6073972437       -2.7696208014       -2.5336359769
 H         5.6926852873       -3.7514617915       -1.0560835601
 H         5.9566092328        2.7226724294       -2.1608758835
 H         7.1120474351        1.3549550791       -2.7358488145
 H         7.2019850591        0.6946623845        0.6797409583
 H         6.6544634702       -0.7239407657        1.2322433852
 H         5.4656586388        0.6003123381        0.9640983795
 H         8.0413068519       -1.5894504509       -0.9877238130
 H         7.3164803356       -1.4128257094       -2.6191880169
 H         8.1783342786       -0.1264710899       -1.7339061544
 H         4.2782077355        1.9610893727       -3.7762776174
 H         5.7372539157        2.6134995099       -4.5907031409
 H         3.3650092923        0.8171896722       -8.6123136024
 H         1.9572723881        1.0605191555       -7.4723143752
 H         3.0834495596        2.3873992046       -7.7626545264
 H         6.2545055151        1.4889297735       -7.9915193763
 H         7.0062165796        2.0237752025       -6.4841114009
 H         5.4185948237        2.6514940789       -7.0977178530
 H         5.0574194882       -0.6595171663       -8.1878587536
 H         6.4119868325       -1.1336906581       -7.1085980184
 H         4.7456463642       -1.5433150436       -6.6526938131
 Na        2.3053812532        0.2091794679       -0.1291505174
