155

 C        -4.9553325295        1.0668716408       -4.9458018269
 C        -4.9036854212        0.5607556438       -3.5111990989
 C        -6.0173653156       -0.3633915403       -2.9210590982
 C        -6.4231148149        0.1685549527       -1.4849637456
 C        -6.8850535706        1.6171179135       -1.5175356867
 C        -7.3375508570       -0.3586863554       -3.8055248693
 C        -5.5768122851       -1.8708395712       -2.9112729624
 O        -3.9258878819        0.7254332892       -2.7984803651
 O        -6.3361182117       -0.5523075182       -0.5401272273
 C        -7.7252332889        1.8659647343       -0.2930070867
 C        -6.7821198956        1.8665992585        0.9491844256
 C        -7.5945558414        1.5427116026        2.3019100727
 C        -8.1672115017        0.0879956873        2.3033889963
 C        -7.3224332546       -1.0962086680        2.8079026168
 O        -5.5973243405        2.0106070601        0.9515761885
 O        -9.2675870757       -0.0890422077        1.7572810804
 C        -6.7539451983        1.7767426286        3.6316043833
 C        -8.8750116808        2.4407498849        2.3470335494
 C        -5.8620353222       -1.1635664396        2.5479459363
 C        -5.0488815736       -2.2228632030        3.2476940738
 C        -3.5167035468       -1.9066423688        3.4279110344
 C        -2.8637920597       -1.2037283593        2.1653984442
 C        -3.0266654504       -1.7939133052        0.7082584344
 C        -3.5121056491       -0.9375252903        4.6461031833
 C        -2.7733655012       -3.2677941312        3.6382838201
 O        -5.4952375308       -3.3459003766        3.5683612667
 O        -2.3600706189       -0.1194304374        2.2894274948
 C        -2.8938808406       -0.6347323842       -0.2362996333
 C        -1.4413874584       -0.1485091910       -0.1075272476
 C        -1.2174933723        1.4023196888       -0.3616395964
 C         0.0614836773        1.7405940139        0.3918323109
 C        -0.0181904032        1.9822036177        1.9040795735
 O        -0.4806405811       -0.8370360521        0.1442900301
 O         1.1078720654        1.7848138403       -0.1900172902
 C        -0.9065068216        1.5842111319       -1.9432578131
 C        -2.3527945398        2.3656229877        0.0779704554
 C         1.2641842567        1.8257364714        2.6138428647
 C         1.5811290829        0.3299561179        2.7783940485
 C         1.5906439925       -0.2800613983        4.2451921118
 C         1.6355271901       -1.8691079852        4.0390954306
 C         2.9711951652       -2.3381511880        3.3375709233
 C         2.8885768886        0.1751728638        5.1633540604
 C         0.3083020073        0.2011989668        5.0359739602
 O         1.7754299448       -0.4041834907        1.8156150132
 O         0.6778480981       -2.5490711143        4.2471543424
 C         2.5172003568       -3.2362432480        2.1627027147
 C         3.6171680555       -3.9747150194        1.3932559609
 C         3.1522551655       -4.6836822992       -0.0283914588
 C         3.0822078432       -3.4566381444       -1.0320742430
 C         4.3289722693       -3.0992090074       -1.8737039389
 O         4.7380608648       -4.1489133500        1.7688011307
 O         2.1573934363       -2.6997546236       -1.0352150836
 C         4.1494968287       -5.8262116554       -0.4424294734
 C         1.6331296365       -5.2914308348        0.0263361521
 C         5.4293859255       -2.1067896770       -1.1877716116
 C         4.9766760748       -0.9810889890       -0.3007326882
 C         5.6538461413        0.4051588645       -0.5529106021
 C         4.8462782608        1.2715823109       -1.6224086417
 C         5.3517409943        2.5526842701       -2.1981338556
 C         5.5088195571        1.2051542722        0.7846958153
 C         7.2228224287        0.2108664211       -0.7252405940
 O         4.1830731449       -1.1695876157        0.5863451638
 O         3.6877238788        0.9995424150       -1.7528976547
 C         5.2814597902        2.7536561928       -3.6796399123
 C         6.1146536062        1.8740071980       -4.5894819129
 C         6.2283980359        2.2125546279       -6.1718387290
 C         4.8027062974        2.2506572993       -6.7790421457
 C         4.4959576351        1.9901589742       -8.2423344302
 O         6.7512404997        1.0066238102       -4.1012719655
 O         3.8755167213        2.5727942384       -6.0151004788
 C         6.9413751097        3.5448077535       -6.4422061352
 C         7.0298947561        1.0551225377       -6.8485791105
 H        -5.8977083509        1.5918926560       -5.0905320549
 H        -4.1559663402        1.7645714304       -5.1788198993
 H        -4.8873058880        0.2382641491       -5.5927357357
 H        -5.9438608818        2.1593142454       -1.6213193870
 H        -7.5080232317        1.8211353545       -2.4262636763
 H        -7.0417609995       -0.8690685024       -4.7561510990
 H        -7.6846469773        0.6423334884       -4.1727728860
 H        -8.2289589446       -0.7281342136       -3.2274121896
 H        -4.7245068569       -2.0421397347       -2.3681090178
 H        -6.3740701097       -2.4046677783       -2.5353224087
 H        -5.4541464962       -2.2962730110       -3.8970457850
 H        -8.3919303253        2.7803445257       -0.2521401713
 H        -8.4467240537        1.1060342142       -0.2153326960
 H        -7.4323696203       -1.1547237870        3.8828178392
 H        -7.8544588251       -1.9405852405        2.3034653253
 H        -5.9440529106        2.4523908378        3.6394084520
 H        -6.4999087988        0.9051719533        4.2609817947
 H        -7.4287055530        2.3018986671        4.3772754164
 H        -9.6365205017        2.1586804127        1.5789282109
 H        -9.4231900788        2.5616578927        3.2492724638
 H        -8.4696577733        3.4873407732        2.1270674698
 H        -5.3504540731       -0.2622615386        2.9587822701
 H        -5.7013632160       -1.2735329701        1.4555505364
 H        -2.4577752113       -2.6614216235        0.4526141113
 H        -4.0833029951       -2.2287854055        0.7568264630
 H        -3.8065987138       -1.4615041795        5.5275843902
 H        -4.2253676174       -0.0886021254        4.5056486902
 H        -2.5282356155       -0.4795647113        4.9764688271
 H        -1.6264012952       -3.1130259504        3.7259614299
 H        -2.9713244329       -3.7593256513        4.5957679255
 H        -2.9377263488       -3.8984380647        2.7876805929
 H        -3.0628828192       -0.8044098099       -1.3563939524
 H        -3.5276585417        0.2033353299        0.0043705248
 H        -0.4792855915        3.0062129235        2.1266644176
 H        -0.7569649358        1.1661632853        2.3169162965
 H        -0.8326329560        2.5678408990       -2.3419973869
 H        -1.7756302958        1.2617291997       -2.5400013404
 H        -0.0471013840        1.0184356311       -2.3500716364
 H        -2.0788024357        3.3970137508       -0.2106319542
 H        -3.3960249849        2.0628391487       -0.2113726364
 H        -2.2873261448        2.3829852700        1.1640228600
 H         1.1438191898        2.2974746704        3.5775094484
 H         2.0679620319        2.3288294536        2.0511197786
 H         3.6516056035       -1.4932101398        3.0075132429
 H         3.6198392956       -2.8558356946        4.0631741662
 H         3.8667410738       -0.1290535032        4.8933925552
 H         2.7336762370       -0.4225201704        6.0804294250
 H         2.8172209510        1.2866755967        5.3686298812
 H        -0.7068929968       -0.1316298964        4.6525664651
 H         0.4092171896       -0.1296442928        6.1661439300
 H         0.3051001131        1.2956726730        4.9749479903
 H         1.7937536065       -3.9375051207        2.4441844890
 H         1.9469375830       -2.5365192639        1.4900793104
 H         4.9420768917       -3.8764310057       -2.3378691873
 H         3.9954744070       -2.4703690971       -2.6487199415
 H         5.0481263498       -5.3327282697       -0.6140119530
 H         3.8321877860       -6.3371072598       -1.3675908775
 H         4.1585721235       -6.4912142952        0.4791033506
 H         0.9850794302       -4.5556956880        0.5899585592
 H         1.2553486587       -5.3780347224       -0.9490429861
 H         1.5930291667       -6.2997116156        0.5750456400
 H         5.9529626377       -1.6969649391       -2.0221815021
 H         6.2452984282       -2.6838724993       -0.6944192016
 H         4.7590268509        3.3770726410       -1.7412228873
 H         6.3663340026        2.8115392476       -1.8887702203
 H         5.6709709931        2.2629608539        0.5955979484
 H         6.3296279316        0.9187566725        1.4080782265
 H         4.4356565574        1.1508268235        1.1634996834
 H         7.5678912901       -0.4796356978        0.1002390591
 H         7.5305466322       -0.1871554171       -1.6812008317
 H         7.6858091515        1.1166231405       -0.6200470050
 H         4.2589858645        2.4988484791       -3.9253495707
 H         5.4957079672        3.7374694435       -3.9881754774
 H         4.7621656885        2.8759692156       -8.8078770536
 H         5.0759766565        1.0736682613       -8.4885157260
 H         3.4713554708        1.8292245553       -8.3674280771
 H         7.1759520470        3.6071455936       -7.4941990548
 H         7.7745243954        3.5708664245       -5.8896159042
 H         6.3020474185        4.3492556061       -6.1151608563
 H         7.4591710067        1.1908487926       -7.8312117948
 H         7.7716762422        0.6192009577       -6.1982022955
 H         6.2952898484        0.3269849130       -6.9746066635
 Na        1.9888629434       -0.3208352705       -0.5801601851
