155

 C        -4.3887552311        2.1587056769       -5.0861738184
 C        -4.6392366911        1.0646732391       -4.0401120732
 C        -5.9637112956        0.2233535519       -4.2489627484
 C        -6.5245134339       -0.0649449694       -2.7560536157
 C        -6.6515660686        1.0795567160       -1.7105124151
 C        -7.1578505844        0.8589779305       -4.9730243121
 C        -5.5787878589       -1.1309290460       -4.8685876993
 O        -3.9673499599        0.9676761771       -3.0455447256
 O        -6.8521410011       -1.1780171835       -2.4470041593
 C        -7.4600448290        0.7169067818       -0.4183550921
 C        -6.6226095177        1.2245492135        0.8614018576
 C        -7.2861944438        1.3346819430        2.2807428824
 C        -7.5209886185       -0.1737382766        2.6011874469
 C        -6.3875501218       -1.1041860279        3.1051354548
 O        -5.4586398503        1.4776413534        0.7314379063
 O        -8.6129905055       -0.6744528819        2.5178006266
 C        -6.4407058745        1.9594811620        3.3615697937
 C        -8.6760325210        2.0531423928        2.1541501090
 C        -6.3295198467       -2.3297872856        2.2073402132
 C        -5.1888906586       -3.3538201115        2.4938299995
 C        -3.8885333526       -2.9927790824        3.2981722308
 C        -3.0177334559       -1.8482786091        2.6323378496
 C        -2.8370480806       -1.9799482768        1.0891507547
 C        -4.1501974793       -2.5406975334        4.7138916910
 C        -3.0031835656       -4.3313862982        3.4123718142
 O        -5.4205100548       -4.5546408583        2.3869511760
 O        -2.4661045278       -0.9226245598        3.1996973810
 C        -2.8460266072       -0.6146309538        0.2987454126
 C        -1.5194863644       -0.2036951625       -0.2548453813
 C        -1.2559015965        1.3409545566       -0.2752067653
 C        -0.2125674349        1.6851392171        0.8514186174
 C        -0.7207431591        1.6451275373        2.2905903739
 O        -0.6568190093       -0.9890645116       -0.5518088949
 O         0.9192033973        2.0368629076        0.6470016573
 C        -0.5975814493        1.5869176151       -1.6971015119
 C        -2.5710924662        2.2676471447       -0.0158481356
 C         0.3609042195        1.2414126435        3.2689308660
 C         0.8965417380       -0.1521746414        3.0468714213
 C         1.2165358912       -0.9850312892        4.2537974053
 C         1.6452288034       -2.3803944111        3.9409003870
 C         3.0251237667       -2.5209600340        3.2618027334
 C         2.4963498086       -0.2601036363        4.9599076809
 C        -0.0621228381       -1.1466476641        5.2602031221
 O         1.3310623696       -0.4785476384        1.8996441254
 O         0.9065451356       -3.3372934591        4.1884511029
 C         3.1639501940       -3.6309481483        2.1849440247
 C         4.5072301756       -3.5378613663        1.5106955937
 C         4.4835581402       -4.1902785573       -0.0705814333
 C         3.8675988656       -3.0451517093       -0.9492148326
 C         4.7256684693       -2.2289643856       -1.8462335187
 O         5.4866121597       -3.0064520627        1.8929097179
 O         2.6033898498       -2.9559419292       -0.9217678465
 C         5.9877018843       -4.3871168863       -0.5904480394
 C         3.5846216975       -5.4451958569       -0.0729506346
 C         5.5936994790       -1.1320881152       -1.0552223523
 C         4.5595079589       -0.1824565797       -0.2722403724
 C         4.6112768576        1.3865732442       -0.3723350834
 C         3.5995279134        1.7787291280       -1.6383647550
 C         3.7821988203        3.1443399403       -2.3214975115
 C         4.0597983407        2.1122789504        0.8882743100
 C         6.0756966506        1.9573465113       -0.3945106031
 O         3.7742216525       -0.7665601157        0.4612252088
 O         2.7717079000        1.0203204790       -2.0877467538
 C         3.9629361203        2.9430051114       -3.8047918275
 C         5.3088907356        2.1078010934       -4.1016970512
 C         6.4247412113        2.7873533288       -5.0518295937
 C         5.6771585497        2.9258851540       -6.3927271066
 C         6.4851138114        2.9511055368       -7.7571749361
 O         5.5048888387        1.1177080753       -3.5022020835
 O         4.5079766187        3.1518557717       -6.3857137491
 C         6.9152919284        4.1540114191       -4.6585055688
 C         7.6873770631        1.8962240851       -5.0458296071
 H        -5.0075712838        3.0363371218       -4.8656338345
 H        -3.2392481097        2.4608458004       -5.2260433288
 H        -4.6968730667        1.7202039860       -6.0819123520
 H        -5.6136140057        1.3960957238       -1.5214419536
 H        -7.0836748060        1.8882056283       -2.2357516997
 H        -7.0167030615        0.8428368415       -6.0352750625
 H        -7.2201643061        1.8788174758       -4.6615715286
 H        -8.0407854002        0.3359997308       -4.8213039694
 H        -4.6753096518       -1.6899163326       -4.3668154871
 H        -6.5417781265       -1.7052317877       -4.9672220081
 H        -5.3285374517       -1.0379942041       -5.9361357471
 H        -8.4763248527        1.0848745615       -0.2960099713
 H        -7.4124983531       -0.3628356926       -0.2373802722
 H        -5.4773117262       -0.6101024568        3.0194712615
 H        -6.4934376089       -1.2421027687        4.1866977851
 H        -6.9529349321        2.7509148669        3.7837989904
 H        -5.4027931859        2.2887204382        3.1701812786
 H        -6.2636056575        1.1808965864        4.1146975519
 H        -9.3203306477        1.6850652551        1.3936491690
 H        -9.1212042996        1.9199602115        3.0859139575
 H        -8.3178550968        3.0339414932        2.0048231030
 H        -6.2780910492       -2.0407704134        1.1274558595
 H        -7.2073750177       -2.9547689249        2.1764319718
 H        -1.8023081547       -2.3620069510        1.0074597211
 H        -3.4189662136       -2.7607239553        0.6862363926
 H        -4.8225124849       -3.1323423287        5.2298134213
 H        -4.4701183191       -1.5082960974        4.8470337075
 H        -3.1963943782       -2.7041736791        5.2738147829
 H        -2.1496821124       -3.9600698487        3.9380744405
 H        -3.6095903192       -4.9963080327        4.1505577320
 H        -2.7637732270       -4.8969682533        2.4248438600
 H        -3.4247509001       -0.6354434922       -0.6291549614
 H        -3.3243300897        0.2377990178        0.7636479820
 H        -1.0588110633        2.6313512037        2.4914107385
 H        -1.6821521849        1.0553801989        2.2841294850
 H         0.5030459990        1.9907737314       -1.7575671905
 H        -1.1504801349        2.2811266673       -2.3967900289
 H        -0.5403090549        0.6118495272       -2.1802763920
 H        -2.4494905914        3.2141175970       -0.4899728304
 H        -3.5012573442        1.8060601590       -0.2974302567
 H        -2.7109118487        2.5713832461        0.9707377250
 H         0.0684763563        1.4955113337        4.2714402764
 H         1.3027902656        1.8213459691        3.0691626129
 H         3.3993733592       -1.5848922852        2.7260122794
 H         3.8143104823       -2.8307350475        3.9964428427
 H         3.2710460194       -0.0133511485        4.3014254988
 H         3.0469636322       -0.9500051361        5.5990710996
 H         2.0792860240        0.6589302145        5.4696397015
 H         0.0054812684       -1.1459954726        6.3353677592
 H        -0.6485014685       -0.2847401426        5.0096806359
 H        -0.7082877322       -1.9454581752        4.9245593751
 H         3.0490223009       -4.5670826434        2.6278805006
 H         2.3833335311       -3.4789646755        1.3470269500
 H         5.3949560439       -2.8443920816       -2.4691714296
 H         3.9815992493       -1.7327966497       -2.5296990721
 H         6.6389612252       -3.5658712266       -0.6191863481
 H         5.8800453026       -4.7077665901       -1.6406814406
 H         6.5014341419       -5.2023283273        0.0024029701
 H         2.5937659000       -5.1040545390       -0.3212961307
 H         3.7994789126       -6.2887789227       -0.6894301490
 H         3.5902356603       -5.8501664940        0.9094530137
 H         6.1157173401       -0.6220413353       -1.8208428652
 H         6.2390491846       -1.5280661951       -0.2263003752
 H         2.9665218716        3.7925840242       -1.9746171110
 H         4.6478157698        3.5847287359       -1.8218181517
 H         3.9029924504        3.1668127582        0.6762742303
 H         4.8889592105        1.9589245887        1.6339928320
 H         3.2074792301        1.7419765635        1.3535938900
 H         6.7255106695        1.4758621386        0.4145536516
 H         6.5645523086        1.6923555329       -1.3397332946
 H         6.1199398925        3.0506672043       -0.2884143657
 H         3.0436343433        2.4371206328       -4.0985542824
 H         3.8909832432        3.8462185583       -4.3157076795
 H         7.3259244503        3.6196207439       -7.5639763431
 H         6.8748037912        1.9822043789       -8.1446072132
 H         5.8130692574        3.4179365014       -8.4039438962
 H         7.8008848249        4.3469421554       -5.1412880252
 H         7.0050953768        4.2752214016       -3.5184849721
 H         6.2183102415        4.8671293662       -4.9503901544
 H         8.3784877005        1.9480901780       -5.9026098425
 H         8.2144768722        1.9694741865       -4.0478454637
 H         7.3886863317        0.8390413681       -5.1059597838
 Na        1.6757262215       -0.6929409291       -0.4425576521
