155

 C        -3.9328755486        1.9292894271       -5.3391984011
 C        -4.5410126772        1.2589356628       -4.0629273243
 C        -5.8715708238        0.5070289453       -4.2065628146
 C        -6.3800350933       -0.0838833679       -2.9100258285
 C        -6.9103758026        0.9889745355       -1.8026413524
 C        -6.8588030279        1.4428754260       -4.8727837045
 C        -5.5232608681       -0.6967530952       -5.1878578213
 O        -3.9026491914        1.3736827504       -3.0368629637
 O        -6.3746125327       -1.2441734717       -2.5830147488
 C        -7.3130177937        0.3147190022       -0.4636978063
 C        -6.5573676045        0.9802413616        0.7881446545
 C        -7.3135506617        0.9572936195        2.1112209214
 C        -7.4026903236       -0.4742545316        2.6660769178
 C        -6.0171714080       -1.2260561122        2.8000633328
 O        -5.4142274572        1.3765247555        0.7021753461
 O        -8.4563544041       -1.0344895769        2.8429247616
 C        -6.4425814441        1.8127951450        3.0406991311
 C        -8.7576165672        1.6050222685        2.0211851882
 C        -6.3821453275       -2.6460607301        2.4734174970
 C        -5.3348340882       -3.7594413204        2.5145996202
 C        -3.8391412926       -3.4233352626        2.8711872163
 C        -3.2930374120       -2.2528324057        2.1217684117
 C        -3.3385129465       -2.1874772220        0.6138281447
 C        -3.7111732440       -3.1841472855        4.4108213373
 C        -2.8458105413       -4.5616581770        2.4859261223
 O        -5.5990090793       -4.8355747900        2.1240897261
 O        -2.9557845909       -1.2251366720        2.7262046200
 C        -3.2147238846       -0.7209952006        0.0466792513
 C        -1.7423150569       -0.2342910088       -0.0517664910
 C        -1.4090681100        1.2294384449       -0.2442497226
 C        -0.2069410652        1.6733456247        0.7179412615
 C        -0.4806739100        1.4624168069        2.2622076056
 O        -0.8677692629       -1.1141148513       -0.0085156972
 O         0.7075806671        2.2591848744        0.2217038060
 C        -0.9418316300        1.3422852246       -1.7493564253
 C        -2.5424704209        2.1622604214        0.0220707627
 C         0.7679821364        1.3110825999        3.1963793939
 C         1.1857052609       -0.2394721670        3.1840887800
 C         1.1919597665       -1.0867859887        4.3512607074
 C         1.7032931065       -2.5777886573        3.8583542991
 C         3.0944949222       -2.8130360430        3.3801847512
 C         2.2634091918       -0.4104725195        5.3160337241
 C        -0.1906523687       -1.1545158385        5.0698120954
 O         1.3635575225       -0.7564424765        2.0549694303
 O         0.8785974904       -3.4577130995        3.7286036019
 C         3.2410224299       -3.6402733798        2.0567754726
 C         4.6435188205       -3.4570602045        1.3162084098
 C         4.7445865492       -3.7908947709       -0.2117798632
 C         4.1277066227       -2.6046237688       -0.9685621805
 C         4.9646707359       -1.4736324588       -1.6873428871
 O         5.6052139094       -3.0702520898        1.9514583512
 O         2.9553272754       -2.3911857492       -0.8355944554
 C         6.1709585852       -4.1428628061       -0.5186198274
 C         3.8149578958       -5.0739885305       -0.4950023483
 C         5.6629180231       -0.5083404169       -0.7410613822
 C         4.6477387519        0.2867901530        0.0340971304
 C         4.4760825141        1.8492466587       -0.2136066628
 C         3.4374351187        1.8954101089       -1.3947131350
 C         3.3534535629        3.1463028834       -2.2642856493
 C         3.6867702150        2.3396245441        1.0257450854
 C         5.7367819879        2.5437336007       -0.4904066620
 O         3.8824139341       -0.2396721967        0.8649353479
 O         2.6249867593        1.0357295423       -1.5785531300
 C         3.7078926662        2.9797082607       -3.8053132145
 C         5.0307503865        2.1971851615       -3.9217120037
 C         6.2471170969        2.7168258609       -4.6817826280
 C         5.8194643033        3.0073832936       -6.2387888648
 C         6.9637212454        3.4539950172       -7.0926000853
 O         5.1854664731        1.2319159686       -3.2066914720
 O         4.6919236515        2.8650862745       -6.5564931276
 C         6.6903359772        4.0717798552       -4.1370947550
 C         7.2961728730        1.6644763559       -4.5627824374
 H        -4.6377435354        2.4880745236       -5.8996005591
 H        -3.1151109746        2.5647193858       -4.9531345751
 H        -3.4166527902        1.2831832932       -5.9353380733
 H        -6.0029522423        1.5218553533       -1.6544644243
 H        -7.6753258021        1.6817063977       -2.1610997485
 H        -6.8879777109        1.4271975366       -5.9076626145
 H        -6.6360256191        2.4101440239       -4.5742950362
 H        -7.8597825263        1.2160646944       -4.4553554678
 H        -4.6941807652       -1.2882720209       -4.6536992726
 H        -6.3052207150       -1.4198599850       -5.2420615838
 H        -5.2183885220       -0.4787010446       -6.1762458881
 H        -8.3373372923        0.2900194217       -0.2094369907
 H        -7.1052646264       -0.7617479222       -0.5002622113
 H        -5.1893080514       -0.7589514466        2.1792810013
 H        -5.8220214531       -1.1416140086        3.8423775867
 H        -6.4266426693        1.5075163278        4.1284263156
 H        -6.7132972685        2.8519366601        2.9414897631
 H        -5.4149549389        1.5757662474        2.7884443273
 H        -9.3171847493        0.6975535552        1.6624874484
 H        -8.9854314498        1.7556023246        3.0449565389
 H        -8.8578714127        2.5351023203        1.3872876010
 H        -6.7276660578       -2.7122738861        1.4675556234
 H        -7.1790657572       -2.9227810678        3.2104738398
 H        -2.6250497639       -2.8439009666        0.1544276809
 H        -4.2944084504       -2.6736053714        0.3242452550
 H        -3.9171624669       -4.1656005516        4.8300306193
 H        -4.4665234915       -2.5032615605        4.8467389144
 H        -2.8286917297       -2.7371953109        4.7303503894
 H        -1.8755862463       -4.2165758930        2.5232910979
 H        -3.0590765162       -5.4478411793        3.0725260460
 H        -3.1686843644       -4.8176864723        1.4062238911
 H        -3.6197857747       -0.6251330572       -0.9857737046
 H        -3.7750554292        0.0319304077        0.6723266475
 H        -1.1495649148        2.4000945887        2.5532058151
 H        -1.1954372268        0.6122490489        2.2169016418
 H        -0.7334787923        0.3209307137       -2.1198989528
 H        -0.0956316533        1.9560710049       -1.8080818969
 H        -1.6898410171        1.7880805334       -2.4803898139
 H        -2.2511999556        3.0855025687       -0.4635448329
 H        -3.4171034940        1.9235523362       -0.5260038875
 H        -2.7241911644        2.3182742191        1.0687209126
 H         0.2821359512        1.6489591384        4.1485661243
 H         1.6153329126        1.9122084131        2.9154168906
 H         3.6630445150       -1.8547070459        3.3012052676
 H         3.6818236001       -3.2721423173        4.1875809952
 H         3.1737640248       -0.2951109182        4.7879356830
 H         2.3016874263       -0.8830194862        6.2685912808
 H         1.9994831691        0.5584402409        5.6089806585
 H        -0.8521012355       -0.3521919047        4.7882503298
 H        -0.7523615754       -2.0912896415        5.0026152700
 H         0.0452206451       -1.1343244394        6.0512167457
 H         3.0122925891       -4.6910089318        2.2833586805
 H         2.3854955776       -3.3766533039        1.3736743312
 H         5.6142940243       -1.8713711408       -2.4752197524
 H         4.2631178152       -0.8589075038       -2.2702491682
 H         6.7222754160       -3.3256208151       -0.0910015730
 H         6.4580627229       -4.1229559516       -1.6073346994
 H         6.5997495079       -5.0369969606       -0.0814662700
 H         2.7474007885       -5.1287491400       -0.4113587583
 H         4.0928606280       -5.4247382719       -1.4218695377
 H         4.1965323894       -5.8655955337        0.2038922610
 H         6.4416139474        0.1524096648       -1.2132712803
 H         6.1750460988       -1.0496738530        0.0197684976
 H         2.3251415195        3.4539858906       -2.1714079237
 H         4.0043286238        3.8919664236       -1.8086929665
 H         3.4525057147        3.4339000964        1.0765785583
 H         4.1428075942        2.2152071359        2.0793791158
 H         2.7782759775        1.6923902855        1.0593393611
 H         6.3929514069        2.4382774170        0.4560987639
 H         6.1932967962        2.1380149742       -1.3867359839
 H         5.6307689846        3.5567671079       -0.6669505628
 H         3.0472616261        2.4130652882       -4.4096047699
 H         3.6218468349        4.0591627711       -4.0437045650
 H         7.6786876364        4.1028985303       -6.5145539918
 H         7.3570308825        2.5135305386       -7.3995183990
 H         6.6263049311        3.9582882526       -7.9997783872
 H         7.7219427261        4.2466898491       -4.3497274799
 H         6.6584807698        4.0511743529       -2.9988398640
 H         6.1029067737        4.8110104842       -4.4539696803
 H         8.0857139906        1.9354642716       -5.3574591481
 H         7.8293903220        1.6371760102       -3.5436312038
 H         6.9030075860        0.6366033178       -4.6581884248
 Na        1.6631280797       -0.6282754183       -0.0954815797
