155

 C        -3.4112319754        0.1879589069       -4.8117073331
 C        -4.2172239063        0.9206018714       -3.7224260209
 C        -5.7328907091        0.9770216361       -3.7715524507
 C        -6.3409227094        0.4643475380       -2.3146072247
 C        -7.7952238604        0.8966490639       -2.0272595266
 C        -6.2062219742        2.4461915500       -3.9992665217
 C        -6.4213800534        0.0959674471       -4.8447710592
 O        -3.6047871016        1.5600259930       -2.8792931066
 O        -5.7838877361       -0.3923836536       -1.6891329475
 C        -8.3748223136        0.2449399210       -0.7143684152
 C        -7.5012983462        0.3250304060        0.5233960335
 C        -7.8307035960       -0.5691923641        1.8189052171
 C        -7.8008851839       -2.0770595655        1.4824867609
 C        -6.6489203902       -2.5456550832        0.6424858407
 O        -6.5494554984        1.1265872729        0.5940933803
 O        -8.7467417037       -2.7964988771        1.8119404256
 C        -6.8696605781       -0.1601320484        2.9202058180
 C        -9.3534806389       -0.2752255170        2.1747994413
 C        -5.7405235110       -3.4247184228        1.4419598930
 C        -4.7070313519       -4.1720088176        0.5287967187
 C        -3.2200789784       -4.3524545095        0.9705830937
 C        -2.6396115210       -2.9318580716        0.5761134032
 C        -2.4718646549       -2.5131387585       -0.9092561501
 C        -3.1631115699       -4.6748176319        2.4366750515
 C        -2.6637068875       -5.5505569972        0.1676768096
 O        -5.1174246808       -4.6905145444       -0.5221777658
 O        -2.4754707695       -2.1870877697        1.4939066393
 C        -2.6263897489       -1.0085031458       -1.1407700695
 C        -1.5813647059       -0.2090224691       -0.3131512839
 C        -1.7745413582        1.3070973533        0.1934035567
 C        -0.9038721642        1.4923148452        1.5323572438
 C        -1.4662342931        0.7492762222        2.8038946245
 O        -0.4667655411       -0.7417607659       -0.2060854158
 O         0.2256751081        2.0014973246        1.3969164854
 C        -1.2182217312        2.2521946914       -0.9406843876
 C        -3.2398123115        1.5723196539        0.4306239206
 C        -0.3949684303        0.6772426145        3.9109841048
 C         0.5607142412       -0.4343535911        3.5118635545
 C         1.1830227991       -1.3916946717        4.7191546697
 C         1.9161973899       -2.6370253115        3.9710042115
 C         3.4017476357       -2.4767086068        3.4697176335
 C         2.1350138343       -0.3766184120        5.5623204905
 C        -0.0183467930       -1.8438208486        5.6307446521
 O         0.9467645640       -0.5189156243        2.3758272956
 O         1.2588892934       -3.6909000021        3.8258790752
 C         3.8645421247       -3.6817244711        2.6642637453
 C         4.9532422520       -3.2667644455        1.6843341027
 C         4.5774187539       -2.9926344693        0.1238594612
 C         3.9959908971       -1.5928948338       -0.2765301483
 C         4.9023778691       -0.4978883279       -0.8162631898
 O         6.0885259604       -3.3012457910        2.0087128435
 O         2.7763327497       -1.4553670916       -0.2404042222
 C         5.9236166686       -3.1770661673       -0.6411150407
 C         3.5854402546       -4.0695963421       -0.3682745157
 C         5.6083502876        0.1460896951        0.3955565957
 C         4.5736508890        1.0083057082        1.1124994456
 C         4.3264677276        2.5876914785        0.6316063573
 C         3.7338035929        2.6489396474       -0.8000672081
 C         4.0886574214        3.8052819361       -1.8095903394
 C         3.2795903298        3.1587561591        1.6204179682
 C         5.6112353118        3.4451221142        0.7139747626
 O         3.8442475287        0.5094720460        1.9016455664
 O         2.9008371466        1.8275156072       -1.2191843925
 C         4.2875336686        3.3245454646       -3.3266176673
 C         5.7294705921        2.8012167929       -3.5465631936
 C         6.5858430396        3.3607111224       -4.7878199437
 C         5.7971756660        3.0406079048       -6.1558778985
 C         6.3224969106        3.6977761491       -7.3455929593
 O         6.1954999581        2.1474933280       -2.6285312620
 O         4.9589284074        2.1736986140       -6.1378024737
 C         6.9066017740        4.8350647363       -4.4928506339
 C         7.9511386197        2.5133797612       -4.9515471972
 H        -3.9135072459       -0.4773619125       -5.4645747665
 H        -2.9442528848        0.9412100356       -5.4716913185
 H        -2.5390952546       -0.2332645532       -4.4683237258
 H        -7.7671784146        1.9441696601       -1.7632462643
 H        -8.4432344400        0.7996105221       -2.8806589534
 H        -6.0374965663        2.6272173608       -5.0757325204
 H        -5.7079254712        3.1795709656       -3.3602387458
 H        -7.2851134284        2.5038183724       -3.7734577494
 H        -6.1730000577       -0.9589735550       -4.5815439017
 H        -7.4707692704        0.2294967879       -4.8850282971
 H        -5.9768285142        0.3131579135       -5.7610990970
 H        -9.2164724387        0.8170757798       -0.5106555632
 H        -8.6134895962       -0.8207705657       -0.9595801049
 H        -7.0050577873       -3.0034870797       -0.2863367289
 H        -6.1753300645       -1.7196056749        0.1226265734
 H        -6.7671884007       -1.0108163678        3.6026553424
 H        -7.2568313944        0.7215965429        3.3349256237
 H        -5.9366120486        0.0941258783        2.5230047142
 H       -10.1289386360       -0.5755457069        1.4288166597
 H        -9.6334399500       -0.6173274599        3.1481187052
 H        -9.5079905495        0.8419797993        2.2993139270
 H        -6.3048982858       -4.2234706911        1.8680051906
 H        -5.3971906054       -2.9055504706        2.3486987132
 H        -1.5048256019       -2.8643992208       -1.3744538524
 H        -3.1696162696       -3.0767489563       -1.5116966824
 H        -4.1193418463       -5.0606361324        2.8308051181
 H        -2.8253303866       -3.8002156966        2.9264412314
 H        -2.4118326629       -5.4757711639        2.6119279110
 H        -1.7267767960       -5.7036288111        0.4544345587
 H        -3.1612753118       -6.4845341749        0.2890311888
 H        -2.5732905111       -5.3524217240       -0.8809647890
 H        -2.4083270381       -0.7721662033       -2.1961824030
 H        -3.6873803671       -0.6768117177       -1.0739404416
 H        -2.2479922539        1.3648690813        3.1142229068
 H        -1.8986986174       -0.2554666122        2.6584775522
 H        -0.1763962889        2.3898272537       -0.6912942402
 H        -1.7664803252        3.0997295411       -0.9180275637
 H        -1.4191444744        1.7617002295       -1.9137378093
 H        -3.3151448668        2.4549111795        1.0320742519
 H        -3.7801487617        1.7704513634       -0.4742405320
 H        -3.7136589899        0.8351656626        1.1013892882
 H        -0.9423551090        0.6118107353        4.8791475343
 H         0.1347811966        1.6128184437        4.0594304499
 H         3.4053859465       -1.5744172463        2.9019750559
 H         4.0506144455       -2.3337428785        4.3348926197
 H         3.0384231207       -0.1029817012        4.9835489248
 H         2.2670994457       -0.9697719674        6.4559004424
 H         1.5568309958        0.4512730182        5.8229815593
 H        -0.8024368670       -2.1140378962        4.9419370515
 H         0.2520583781       -2.6986401671        6.2309309351
 H        -0.3643860367       -1.1094636301        6.4069229215
 H         4.2562435663       -4.4149908016        3.4492916391
 H         3.0537791267       -3.9687387650        2.1193573344
 H         5.6584615931       -0.8268305074       -1.4902839817
 H         4.2271742520        0.1401771855       -1.3477103649
 H         6.7832685764       -2.4847465020       -0.3317318870
 H         5.9095527073       -3.1909063019       -1.6979649119
 H         6.1573630273       -4.2164209426       -0.3542583840
 H         2.6135846546       -3.7446117793       -0.0375554204
 H         3.5075358982       -4.1198753619       -1.4959628362
 H         3.7215620445       -4.9776257381        0.1479913932
 H         6.4332259735        0.7610012177        0.0817547031
 H         6.0858939199       -0.6236349703        1.0788818332
 H         3.2482047778        4.4811649993       -1.7843285963
 H         5.0234391918        4.2623369727       -1.5137522830
 H         2.4736253847        3.7176670414        1.0764983938
 H         3.6410644399        3.9595085872        2.3582541252
 H         2.7076743172        2.4392161633        2.2378461880
 H         5.9306545874        3.1986214398        1.7023037107
 H         6.3322925266        3.1028027787        0.0112971580
 H         5.4939239900        4.5546675968        0.6541363735
 H         3.5441660520        2.4697133021       -3.5435047556
 H         4.0046256344        4.1546200401       -3.9540093875
 H         7.3228448482        3.9679259730       -7.1547450035
 H         6.2862655346        3.1173802507       -8.2669008338
 H         5.6965080073        4.5867311112       -7.5422091988
 H         7.6310615440        4.9818179157       -3.6742950076
 H         5.9185224209        5.4252836934       -4.2106174671
 H         7.3183819403        5.3666971886       -5.3270390833
 H         7.8786196377        1.7565667798       -4.1865887947
 H         8.0682022766        2.0514316930       -5.9298287245
 H         8.7616692621        3.2483170973       -4.8891791018
 Na        1.5665704390        0.4499460731        0.2205017058
