155

 C        -3.7555395483       -0.3182121088       -4.5055342903
 C        -4.4264755406        0.6117749998       -3.5686020644
 C        -5.9311006392        1.0710984492       -3.7342914893
 C        -6.6053136184        0.4736960781       -2.4546101436
 C        -7.9364907004        1.0564413246       -1.8599209063
 C        -6.0330485217        2.5892348923       -3.6250759911
 C        -6.6945553192        0.5120897720       -4.9914544720
 O        -3.7583609104        1.0737072314       -2.6412810649
 O        -6.0840633664       -0.4334407345       -1.8391276035
 C        -8.5451942362        0.1376017718       -0.7124622205
 C        -7.6952986497        0.2835122497        0.5568972448
 C        -7.9755044766       -0.8101784762        1.5919522562
 C        -7.7730263576       -2.2627329581        1.0085363881
 C        -6.3254953049       -2.5152571545        0.3210803356
 O        -6.9330248345        1.2278851999        0.7335727470
 O        -8.6876553486       -3.0116687302        1.0392750600
 C        -6.9205090935       -0.5616469347        2.7584909790
 C        -9.3646626154       -0.6396360359        2.2630344923
 C        -5.7729522611       -3.8288799189        0.8114492732
 C        -4.5906779979       -4.3670568816       -0.0421722815
 C        -3.1080819153       -4.4839528353        0.5400269356
 C        -2.6287843486       -2.9043269065        0.4985036155
 C        -2.2686837983       -2.4952045366       -0.8895613778
 C        -2.9643820486       -5.0924466077        1.9843860933
 C        -2.2905723132       -5.3276539669       -0.4243648302
 O        -4.8313046232       -4.6515409289       -1.2396819641
 O        -2.7194593509       -2.1238291315        1.4168230366
 C        -2.4770041036       -1.0435729144       -1.0885384945
 C        -1.4857967985       -0.1579012566       -0.3061571195
 C        -1.7550903829        1.2499130586        0.2177395591
 C        -0.9500344438        1.4804185813        1.5721639506
 C        -1.3960289855        0.7016101906        2.8258302828
 O        -0.3139570629       -0.6007757484       -0.3245129370
 O        -0.1037671326        2.3816977373        1.6033017286
 C        -1.1641314047        2.2345249442       -0.8660656503
 C        -3.2891079101        1.5368785708        0.4240170536
 C        -0.2674382998        0.6778948371        3.9424359073
 C         0.8307358997       -0.4015672727        3.6898442754
 C         1.2836569758       -1.3435166628        4.8308051109
 C         1.9665067093       -2.5196113617        3.8840251884
 C         3.4051945622       -2.3724505728        3.3717279919
 C         2.2104295931       -0.4978535209        5.7453381103
 C         0.0790541034       -1.9780451872        5.6156963528
 O         1.4214525758       -0.3510915433        2.5962090679
 O         1.2698150441       -3.4909807674        3.5473704614
 C         3.7686055753       -3.6247647311        2.5656744713
 C         4.9463659594       -3.2598108737        1.6896708941
 C         4.7148283946       -3.2990294278        0.0802964244
 C         4.2568960649       -1.7205438578       -0.1137881718
 C         5.2588588606       -0.7119169115       -0.7828241288
 O         5.8620889871       -2.6912623128        2.0845041025
 O         3.1382988634       -1.4039552969        0.2497029206
 C         5.9819771121       -3.7126696887       -0.6056625102
 C         3.5243074336       -4.1977787177       -0.3627210145
 C         5.5871424576        0.5264761456        0.1050526555
 C         4.4294326988        1.1743573095        0.9283680401
 C         4.1687415382        2.8303615774        0.8143427914
 C         3.6301277063        3.0485462692       -0.6212498946
 C         4.1603947567        4.1414990851       -1.6546556217
 C         3.0766022674        3.2494305834        1.7903838067
 C         5.5230991630        3.5905213441        1.0528718857
 O         3.9587134776        0.5220927342        1.7844725304
 O         2.7681193934        2.2343025412       -0.9687841340
 C         4.4280971769        3.6534629278       -3.0698044606
 C         5.7496941696        2.9343812169       -3.2962034320
 C         6.5414992036        3.3260660877       -4.6622185506
 C         5.7185404218        2.8084277788       -5.9144347051
 C         6.0229279522        3.4006613474       -7.2115760085
 O         6.2234958296        2.2916374763       -2.4253091243
 O         4.8506159168        1.9560387730       -5.6969765214
 C         6.6891543658        4.8835747300       -4.6278971331
 C         7.9752359656        2.7563992604       -4.6131652659
 H        -3.6178961732       -1.3097025334       -4.1197456383
 H        -4.1830384425       -0.3931903838       -5.4157778427
 H        -2.7795784991        0.1118055696       -4.7006980213
 H        -7.6334433559        2.0114714661       -1.3709797560
 H        -8.5840974451        1.4558733184       -2.6370158110
 H        -5.3860415379        3.1453131213       -4.3266142061
 H        -5.9441071552        2.8430182252       -2.5568283006
 H        -7.1474156264        2.7692914934       -3.9200976004
 H        -6.4121732517       -0.4966679596       -5.1292825062
 H        -7.8109855070        0.7122806370       -4.9002105161
 H        -6.5592061333        1.1535838807       -5.9174403455
 H        -9.5886236593        0.2162206131       -0.5630457268
 H        -8.3601124175       -0.8873245525       -1.0655603636
 H        -6.3110363521       -2.4844532612       -0.7921750575
 H        -5.7088491241       -1.6287758910        0.6440487785
 H        -7.4522807335       -0.9542269528        3.6713860930
 H        -6.6535079594        0.4796007207        2.7673288537
 H        -5.9785327401       -1.0361102056        2.5789079104
 H       -10.1148907290       -0.4912853450        1.5334575195
 H        -9.7116819126       -1.4956820258        2.7116757545
 H        -9.4978229159        0.1687026849        2.9579555864
 H        -6.5134840256       -4.6038674363        0.9621033867
 H        -5.3740377642       -3.6878909143        1.8428785944
 H        -1.2542950562       -2.8123253950       -1.1992098457
 H        -2.8335519438       -3.0544752464       -1.5629669510
 H        -2.8193401632       -6.2213897199        1.9303889459
 H        -3.8507415010       -4.9258880365        2.5305946214
 H        -2.0303882731       -4.7791432675        2.4760079683
 H        -1.2483351652       -5.0873795470       -0.6163953453
 H        -2.3073012746       -6.4061315544       -0.1505324139
 H        -2.7937890664       -5.3423775040       -1.3388718217
 H        -2.2918910501       -0.8334292885       -2.1540406056
 H        -3.5318323665       -0.7232859764       -1.1114332890
 H        -2.2505691741        1.2689680760        3.2080893922
 H        -1.7878729382       -0.3600064414        2.5844581338
 H        -0.1745937896        1.7707838858       -1.2187131967
 H        -0.9392134450        3.1814083015       -0.4019647923
 H        -1.9490167683        2.2904253579       -1.5929922482
 H        -3.3969657948        2.4350995083        1.0532486042
 H        -3.8543700780        1.5879957118       -0.5141916150
 H        -3.7950689282        0.6828776287        1.0048283776
 H        -0.7880837168        0.5546198402        4.8919730684
 H         0.0789791112        1.7136130146        3.9052370681
 H         3.5237444490       -1.5329799789        2.6597986552
 H         4.0491176979       -2.1510395671        4.2904225746
 H         2.5699065015        0.3277263780        5.0838239098
 H         3.1744154841       -1.0710353601        5.9252726301
 H         1.5533334461       -0.1546279523        6.4816494903
 H        -0.3644951274       -2.9171848808        5.1637663923
 H         0.5785617840       -2.4100528394        6.5223174467
 H        -0.7301978118       -1.2705736941        5.7739807187
 H         4.0440440036       -4.5681435207        3.1954844543
 H         2.9374756086       -3.8451917954        1.9928729244
 H         6.2225438639       -1.2115585305       -0.9398951132
 H         4.9162440740       -0.3246343312       -1.7474726201
 H         6.8359634109       -3.0766174559       -0.2206108062
 H         5.9380282578       -3.6484809881       -1.6631137441
 H         6.2572764212       -4.6858453060       -0.2131608220
 H         2.5517454308       -3.6549441215       -0.2369582244
 H         3.6391917739       -4.2064218688       -1.4990986419
 H         3.4653848589       -5.2163072082        0.0610364426
 H         5.9989639049        1.2158759443       -0.6005753256
 H         6.3971777287        0.3936476133        0.8793820334
 H         3.3297129499        4.8468525790       -1.6552178507
 H         5.0314846407        4.7068384805       -1.3296632485
 H         3.1114171923        4.2609422919        2.0641179739
 H         2.9220078480        2.5859946584        2.6782645556
 H         2.1853166983        3.3368778866        1.2874895177
 H         6.0557642752        2.9772948717        1.8167805514
 H         6.1744947741        3.5365925042        0.2517002819
 H         5.3042742668        4.5982239775        1.4126033299
 H         3.5288718028        3.1150901878       -3.4165765922
 H         4.5023892269        4.5054887145       -3.6935759964
 H         7.0675352687        3.2261246028       -7.4997190208
 H         5.3200757217        3.2209357456       -7.9419115413
 H         5.9196263587        4.5154450369       -7.0825957322
 H         7.0680936921        5.2065315493       -3.7478115370
 H         5.7685418960        5.3944890870       -4.8214553657
 H         7.4665480078        5.2100552856       -5.4036184676
 H         7.9382751263        1.7050359536       -4.8175561360
 H         8.5797370531        3.2750105427       -5.2858518397
 H         8.3443827229        2.9208198881       -3.6033949969
 Na        1.7200692798        0.5045493338        0.5663442110
