155

 C        -5.7531452568       -0.6793016821       -5.0446956938
 C        -5.2262031472        0.4189358165       -4.0893671491
 C        -6.4017349250        1.1838899760       -3.3396445105
 C        -7.1445044994        0.2644680002       -2.3157863174
 C        -8.3422951116        0.9256531320       -1.6224585023
 C        -5.7848857485        2.3609106239       -2.5573635170
 C        -7.4751313327        1.6702893909       -4.3666242060
 O        -4.0558835823        0.5081739355       -3.8208058416
 O        -6.7469833643       -0.8324556502       -2.0065363010
 C        -8.7876583006       -0.0559719742       -0.6090580191
 C        -7.7333029260       -0.4724111385        0.3874960636
 C        -7.8537840398       -1.8366463618        1.0598221315
 C        -7.4044501494       -2.9836455038       -0.0354874575
 C        -6.0122880840       -3.4692075741        0.0233385465
 O        -6.7287780740        0.2415855991        0.5030418655
 O        -8.2396151831       -3.3526223318       -0.8472950796
 C        -7.1022378000       -1.8273856902        2.3691606629
 C        -9.2597708993       -2.1717094713        1.3521320710
 C        -5.5708389895       -4.3069955255       -1.2221710280
 C        -4.0343364628       -4.4118548800       -1.4905967721
 C        -2.8784506381       -4.2809839794       -0.4350915420
 C        -2.5513796307       -2.7188269661       -0.3049737101
 C        -2.1438283241       -1.9036243917       -1.5268223770
 C        -3.3470164792       -4.9489175450        0.8735753831
 C        -1.5547717070       -4.9456451802       -0.9403213136
 O        -3.7202072849       -4.4266904850       -2.6588486713
 O        -2.7195994380       -2.2351017356        0.8504590822
 C        -2.3680772669       -0.3810149338       -1.2283485696
 C        -1.3265726441        0.1165949560       -0.2358953134
 C        -1.6375378155        1.5290515492        0.5048465449
 C        -0.8473926921        1.5015298934        1.8064619521
 C        -1.3585701099        0.8267247081        3.0873931923
 O        -0.2234092321       -0.3198362010       -0.1336666228
 O         0.3121209212        1.8939547310        1.8059896149
 C        -1.0889454968        2.6407462632       -0.4272090959
 C        -3.1209740684        1.8099133566        0.8066759600
 C        -0.3287048759        0.4095050206        4.0369596016
 C         0.6322436504       -0.7363411776        3.6731199174
 C         1.1136530914       -1.6619656691        4.9380829099
 C         2.1986849308       -2.7432921007        4.4918101549
 C         3.5444180702       -2.3112304987        3.8803461492
 C         1.8083895939       -0.5116973106        5.8258519487
 C        -0.0556779505       -2.3321551523        5.7864908097
 O         0.9796695710       -0.9248404357        2.5419605486
 O         2.0652076077       -3.9525501691        4.7401227623
 C         3.7611296623       -2.9935873140        2.4583089650
 C         4.9375968849       -2.3869336669        1.6846854999
 C         4.9888988213       -2.4990795405        0.0270184382
 C         4.2857164290       -1.1524270200       -0.4737743369
 C         5.1699376310       -0.0138341826       -0.8366177145
 O         5.9108609437       -1.8138739618        2.2537541006
 O         3.0167693319       -1.1684201603       -0.4743451119
 C         6.5967839816       -2.5053552837       -0.3055574400
 C         4.3034552367       -3.7628659126       -0.4379151372
 C         5.8636377545        0.6562995246        0.4017545668
 C         4.7815371165        1.3563846295        1.2311988842
 C         4.6909678648        2.9477766410        1.3274290191
 C         3.8235107045        3.3632184612       -0.0219543517
 C         4.3425570110        4.5833905264       -0.6919778479
 C         3.7561160259        3.3971960662        2.4580380534
 C         6.0996984311        3.6147387061        1.3120351722
 O         3.9794744795        0.6479264394        1.8230941073
 O         2.8370631774        2.7240770951       -0.3706837716
 C         4.3436437626        4.2029499343       -2.2885526433
 C         5.7042810182        3.5281411778       -2.6409248267
 C         6.1047854807        3.3810681244       -4.1234961232
 C         5.0377486256        2.4255973560       -4.8069002336
 C         5.3949193893        1.9965620414       -6.2820227701
 O         6.2067837241        2.9191033098       -1.6590999763
 O         4.0672291446        2.0361002570       -4.2386886450
 C         6.1036948583        4.7957981575       -4.7756095093
 C         7.5416737616        2.7142530893       -4.3019756793
 H        -5.9876333367       -0.2727775747       -6.0696259807
 H        -4.8759148709       -1.4524709263       -5.2069324520
 H        -6.6471549454       -1.2177439049       -4.6883176141
 H        -7.9326850601        1.8970478554       -1.1575606665
 H        -9.1337903796        1.2187567284       -2.3083057710
 H        -5.4090993095        3.1135219226       -3.3030786575
 H        -4.9588087247        1.9405680727       -1.9032011054
 H        -6.4488283447        2.8455537104       -1.8600437512
 H        -8.0371352637        0.8099243697       -4.7635916054
 H        -8.0938763981        2.3443521526       -3.9230147704
 H        -7.0221086738        2.1887535399       -5.1408875264
 H        -9.5567655954        0.5775639398       -0.0096691542
 H        -9.2925451572       -0.8434914355       -1.0763722579
 H        -5.4310403608       -2.5631666943        0.0825107288
 H        -5.8142397373       -4.1469358076        0.8696305137
 H        -6.9080945247       -2.7861453537        2.6925767156
 H        -7.6390090663       -1.2449861544        3.0791981503
 H        -6.1619120962       -1.2734518454        2.2036409414
 H        -9.9864712302       -2.5072404672        0.5886707987
 H        -9.3783326255       -2.9526922519        2.1770339024
 H        -9.9013711524       -1.3508087338        1.6993338306
 H        -5.9399274249       -3.9324808376       -2.2085437459
 H        -5.9019418396       -5.3287026514       -1.0938009896
 H        -1.0221340284       -2.1255097578       -1.6645779404
 H        -2.7796903543       -2.1979416421       -2.3373624408
 H        -3.6846784260       -5.9659151956        0.7027001099
 H        -4.1173418815       -4.3272638572        1.3835696918
 H        -2.5729007284       -5.0425121096        1.6060760789
 H        -0.9435399417       -4.9483071849       -0.1089301999
 H        -1.7277120544       -5.9628547787       -1.2880693056
 H        -1.0721739446       -4.4062281125       -1.8041003552
 H        -2.2321959194        0.1520902640       -2.1624340049
 H        -3.3708931857       -0.3085381067       -0.8120027402
 H        -2.1018788533        1.4542134194        3.6165345741
 H        -1.8989382464       -0.0542141570        2.8095002335
 H        -0.0723713955        2.6201818632       -0.4213004079
 H        -1.5280020657        3.6071405031       -0.1587150288
 H        -1.5017308457        2.5682159853       -1.4409469278
 H        -3.3698905605        2.6061980605        1.4795735255
 H        -3.5951973985        1.9422585350       -0.1616959446
 H        -3.6555108953        1.0595420945        1.3219755762
 H        -0.8032415584        0.1182318038        4.9296070960
 H         0.3244720163        1.3178041682        4.1889868156
 H         3.6682820483       -1.2562170262        3.8383670029
 H         4.2861583501       -2.6889087746        4.5362265201
 H         2.4441011004       -0.0076242329        5.1440767605
 H         2.2932041950       -0.9332021346        6.6761845558
 H         1.1295780593        0.2358797831        6.2781449667
 H         0.1027611997       -2.2633575011        6.8411951483
 H        -0.9736699701       -1.9726906539        5.3942405360
 H        -0.2193247838       -3.3950427620        5.6440445444
 H         3.9944560543       -3.9861373766        2.6728130369
 H         2.8026564718       -2.9780867852        1.8095457114
 H         5.9630599541       -0.3446200954       -1.5287897465
 H         4.6168459652        0.7789205854       -1.3525375256
 H         7.0447365975       -1.6531186080        0.1074756318
 H         6.6811867857       -2.3349116066       -1.4077837028
 H         7.1050779341       -3.3797363124        0.0935337931
 H         3.2154792676       -3.6788686974       -0.2382883752
 H         4.3468408987       -3.8177777519       -1.4728192807
 H         4.6577892042       -4.6289494105        0.1535704163
 H         6.5482490713        1.4199328443       -0.0007390786
 H         6.4420656580       -0.0417175311        0.9738021716
 H         3.6148719999        5.3918301213       -0.8173845932
 H         5.3350471957        5.0001360508       -0.3664807086
 H         4.2869568776        3.2024843391        3.4241304968
 H         2.8644061165        2.7629738190        2.5090722051
 H         3.4015840179        4.4798535941        2.2047040060
 H         6.8579934190        3.1185072159        1.8969703389
 H         6.4621204404        3.6417308298        0.2247237219
 H         5.9638929553        4.5650168475        1.7408900794
 H         3.5953368996        3.4398767089       -2.5255387564
 H         4.1597309921        5.1543585078       -2.8609824038
 H         5.8590879897        2.7936212000       -6.8426618300
 H         6.2477135093        1.2418425945       -6.3832151243
 H         4.5135497472        1.6810677867       -6.7766885273
 H         6.8299748146        5.4030157515       -4.1806919801
 H         5.0625579547        5.1649105798       -4.5850049477
 H         6.4030881794        4.8108065786       -5.7679004038
 H         7.5236868791        1.6539686415       -4.5058407698
 H         8.1666664658        3.2314317820       -5.0399426256
 H         8.1525615326        2.8890437447       -3.4487060571
 Na        1.8922300881        0.5942198507        0.8108073483
