155

 C        -6.0315772251        0.0321848201       -5.7580025389
 C        -5.3599658920        0.3974569823       -4.3676821652
 C        -6.3097876434        1.0798155913       -3.3178354376
 C        -7.2119478524       -0.0187966596       -2.4385452743
 C        -8.0901851235        0.5369331585       -1.2543143031
 C        -5.4618688484        1.8743177551       -2.3618063098
 C        -7.3891731641        2.0182066917       -3.9955643490
 O        -4.1666616154        0.4968874858       -4.3397810896
 O        -7.1423100488       -1.1858504152       -2.6655045611
 C        -8.8391494545       -0.5703379972       -0.5499049310
 C        -7.8854593348       -1.2671938115        0.5431919244
 C        -7.9187313703       -2.7966503307        0.6944854772
 C        -7.2203872231       -3.5371136382       -0.4659911062
 C        -5.8075774015       -3.0533906882       -0.8615147062
 O        -7.1273009482       -0.6779169646        1.2682476835
 O        -7.7368587178       -4.4616285572       -1.0843524778
 C        -7.1998377156       -3.3260848240        2.0028055777
 C        -9.3959324326       -3.2846525702        0.6427037694
 C        -5.1933863722       -4.2327094899       -1.6372102363
 C        -3.8356514507       -3.9007820260       -2.2195828151
 C        -2.4324842760       -3.7609917780       -1.3453277095
 C        -2.3923122490       -2.2328929946       -0.9738302707
 C        -1.9963781263       -1.2362003195       -2.0674004617
 C        -2.4214738417       -4.5964606411       -0.0976460954
 C        -1.2435140062       -4.0957606594       -2.2486521477
 O        -3.7056082189       -3.9290265909       -3.4369100457
 O        -2.7585961360       -1.8923849790        0.1550057664
 C        -2.2680737413        0.1891985554       -1.5639397407
 C        -1.2147953819        0.6754030360       -0.5205618229
 C        -1.4394444729        1.8836455965        0.4355118994
 C        -0.7686447888        1.3941179194        1.7724054926
 C        -1.4588626343        0.3639714395        2.6549078844
 O        -0.1599089223        0.0564433756       -0.4761009908
 O         0.2346523125        1.8884986028        2.1254851199
 C        -0.7203501137        3.1270909995       -0.0719140764
 C        -2.9680439245        2.2155818880        0.6637479269
 C        -0.6335454710       -0.0658511368        3.9409576938
 C         0.8273400164       -0.7163227980        3.7952732314
 C         1.2013007346       -1.7563147403        4.9279984500
 C         2.4824870472       -2.6364959766        4.5681119687
 C         3.6723457785       -1.9564926366        3.9227092658
 C         1.7328289274       -0.9337450129        6.1785750926
 C         0.0473051579       -2.7498138536        5.2293390405
 O         1.5109467870       -0.4824799368        2.7915797320
 O         2.5432228890       -3.8595032469        4.8203151024
 C         4.0100117996       -2.7232043322        2.6338477819
 C         5.2457037859       -2.3102513867        1.8809417607
 C         5.2015296559       -2.2925937962        0.2693276146
 C         4.6330346883       -0.9197364445       -0.0318022174
 C         5.5140968511        0.2629761030       -0.3304767238
 O         6.4142309438       -2.2587868025        2.3568301604
 O         3.4171219421       -0.8603608821       -0.2178744380
 C         6.5198128624       -2.4931957492       -0.4608454709
 C         4.2250525821       -3.4136193827       -0.1877980989
 C         6.1078068609        1.0766045865        0.7954278995
 C         4.8854392556        1.4993115708        1.6376946556
 C         4.3791060374        3.0595741748        1.8181949105
 C         3.5807662139        3.3642758825        0.3965467384
 C         3.6830512993        4.7016068848       -0.2711378882
 C         3.3540214700        2.9897799929        3.0123987911
 C         5.5714662528        3.9612833005        2.0241545305
 O         4.2603862128        0.5404928143        2.0666611369
 O         2.9524966611        2.4258263267       -0.1407887804
 C         3.9955668170        4.6741840465       -1.8217517473
 C         5.2491404876        3.9024914012       -2.1097678527
 C         5.4616747696        3.2669595607       -3.5430185052
 C         4.3485854205        2.2582504813       -3.9496431816
 C         4.7843674605        1.3027689687       -5.0712154459
 O         6.0911921946        3.6983312172       -1.2117379114
 O         3.2089348714        2.2510462772       -3.5700102009
 C         5.1295856258        4.2895861400       -4.7395292944
 C         6.8657648378        2.7928921193       -3.5729793206
 H        -6.4053632448        0.9344593625       -6.3037050958
 H        -5.3694356779       -0.4707426211       -6.5044533043
 H        -6.9583805764       -0.5987634944       -5.7009061986
 H        -7.4748691263        1.0500384730       -0.5328733169
 H        -8.8497957145        1.0687784276       -1.8721538126
 H        -4.9121807071        2.7687598622       -2.8046116107
 H        -4.5815350870        1.1934466929       -2.0869924068
 H        -5.9430825954        2.2810174499       -1.4384342608
 H        -8.2422938086        1.4831997247       -4.4004218463
 H        -7.8045884081        2.6105196626       -3.3046690292
 H        -6.9776948861        2.5722506121       -4.7542363903
 H        -9.6311563004       -0.0839247379       -0.0298069944
 H        -9.2609323227       -1.3553695969       -1.2032473256
 H        -5.9051662525       -2.1257728472       -1.4513549538
 H        -5.3295773163       -2.6403896300        0.0047874047
 H        -7.1707403696       -4.3822796666        2.0559280828
 H        -7.7435890015       -3.0264957511        2.8668021128
 H        -6.1146715238       -3.0982089352        2.0435530570
 H        -9.9847439097       -3.2077140792       -0.2876731887
 H        -9.5111223835       -4.3992430989        0.9349849846
 H       -10.0646941967       -2.8656458931        1.4282060688
 H        -5.8887556513       -4.5608234047       -2.3731269433
 H        -5.0809129134       -5.0911891724       -0.8849390371
 H        -0.9173315871       -1.3288589749       -2.2746894475
 H        -2.4876329950       -1.6101003428       -2.9637727540
 H        -2.0200103202       -5.6113471955       -0.3977580645
 H        -3.3687053973       -4.7587445631        0.3248254181
 H        -1.8221354327       -4.1356809338        0.6865006355
 H        -0.3725980500       -3.6584141094       -1.9121469736
 H        -1.1560947810       -5.1821941227       -2.1684807370
 H        -1.5286869176       -3.8330324831       -3.3026333586
 H        -2.2884673843        0.7704119953       -2.5067320666
 H        -3.3007443603        0.2843201709       -1.1712934211
 H        -2.4688918012        0.6819900677        2.9172027612
 H        -1.5339638525       -0.5692606595        1.9781627847
 H         0.2356372186        2.9244653443       -0.4122216708
 H        -0.6035717455        3.9346392170        0.7018216187
 H        -1.1850075372        3.4809891675       -0.9625871733
 H        -3.1086702420        3.0241266323        1.3717943349
 H        -3.3741373810        2.7202459550       -0.2115475501
 H        -3.5278266428        1.2994520894        0.8915057981
 H        -1.1482695664       -0.8411218863        4.5342063087
 H        -0.6053629642        0.6860202054        4.6970510001
 H         3.5344922105       -0.8935285097        3.7589213647
 H         4.4472309165       -2.1313888382        4.5862873551
 H         2.0525009975        0.0877947836        5.9525357886
 H         2.6422120105       -1.3766718523        6.5262522598
 H         1.0313654786       -0.9032025846        7.0430231772
 H         0.3032641072       -3.6839278645        4.7364711136
 H        -0.0679013817       -3.1210474524        6.2282143926
 H        -0.8862703841       -2.3708034578        4.9700414796
 H         4.1960269138       -3.8318112886        2.9245415847
 H         3.2066404701       -2.6544727207        1.9556026346
 H         6.3359771903       -0.0858012882       -0.9589231689
 H         4.9326886083        0.9218084699       -1.0220618870
 H         7.1953733865       -1.7239532741       -0.0476603201
 H         6.4620553964       -2.5528133963       -1.5200046934
 H         6.9142009344       -3.4865100589       -0.1965113959
 H         3.2067221652       -2.9692370369       -0.0496360897
 H         4.4051629832       -3.5622568786       -1.2669571427
 H         4.4007522241       -4.4376579170        0.1843398286
 H         6.7043031952        1.8185902577        0.3494948000
 H         6.7886911894        0.5114695915        1.4607900273
 H         2.6463680529        5.1371917745       -0.2898466869
 H         4.3229331202        5.4650548941        0.2370798313
 H         3.9927821090        2.7686492445        3.9024288627
 H         2.4707347292        2.4258704711        2.7577364716
 H         3.1670680086        4.1103165522        3.1912481191
 H         6.2042333775        3.5377075798        2.8507983078
 H         6.1484057612        4.1174137822        1.0571868346
 H         5.3428208898        4.9426903531        2.3221386840
 H         3.1395369082        4.2350728923       -2.4175296697
 H         4.2226841877        5.6855939324       -2.1055437568
 H         5.3575829642        1.6292036235       -5.9705299114
 H         5.3689946546        0.5084591042       -4.6016276047
 H         3.9662453130        0.6983218854       -5.4211903275
 H         5.8211413751        5.0863359682       -4.7417986372
 H         4.1065612445        4.5805593106       -4.4768882017
 H         5.1002543177        3.8815378501       -5.6973040160
 H         7.2259227526        2.5090143842       -2.6012628269
 H         7.0887666908        1.9501616341       -4.1480714748
 H         7.5577245450        3.5401107137       -3.8277553768
 Na        1.8800482539        0.5053967138        0.6778119242
