155

 C        -5.9023943240       -0.1217121254       -5.5693176805
 C        -5.5232895114        0.5946340371       -4.2884683769
 C        -6.5814706409        1.3047178910       -3.3122447343
 C        -7.2850503036        0.1581793894       -2.6053457244
 C        -7.9233169911        0.3577975942       -1.1958293520
 C        -5.7932868073        2.2626581289       -2.2638763828
 C        -7.5878895605        2.1934484206       -4.0966250348
 O        -4.3570883316        0.6911183800       -3.9856154214
 O        -7.4558996090       -0.9141927056       -3.1307825662
 C        -8.6184428846       -0.9657418249       -0.8949595705
 C        -7.6613590171       -1.7027954121        0.2406328188
 C        -7.9280200665       -3.2100554588        0.4737877530
 C        -7.2292881086       -4.0648516225       -0.6204556393
 C        -5.8780651316       -3.4331693333       -1.1168830557
 O        -6.9536035918       -0.9696984673        0.9346627139
 O        -7.7354843370       -5.0770661493       -1.0389784099
 C        -7.2952221972       -3.5798413740        1.8212598268
 C        -9.3860445488       -3.6286375271        0.5554403488
 C        -4.8243160112       -4.4546024444       -1.6182042252
 C        -3.6496678879       -3.7440863010       -2.3794741291
 C        -2.1105742147       -3.5279311455       -1.6706377653
 C        -2.1480540093       -2.0299764028       -1.3018190680
 C        -1.8843330197       -1.0081288306       -2.3230129682
 C        -1.8948780706       -4.4385859209       -0.4165149872
 C        -1.0469158903       -3.8343894859       -2.8028024208
 O        -3.8288682946       -3.3024512429       -3.4828748828
 O        -2.3895013981       -1.6295296396       -0.1331817858
 C        -1.8826352867        0.4128773191       -1.7334097985
 C        -0.9094052228        0.6900456269       -0.5823185946
 C        -1.2775172344        1.8474800518        0.5364862741
 C        -0.6359973586        1.5167537282        1.9315882990
 C        -1.2596694452        0.3696425552        2.6496952791
 O         0.1732835764        0.0752427104       -0.4997468120
 O         0.2808604969        2.1360434544        2.3774526034
 C        -0.5952816338        3.0486402857       -0.1274461779
 C        -2.7531324454        2.0905843803        0.6581778935
 C        -0.4462416346        0.0743272965        3.9124766698
 C         0.6600930476       -1.1076916280        3.6432048576
 C         1.2710240419       -1.7793089532        4.9527385747
 C         2.5211732112       -2.7006807081        4.5167308869
 C         3.6826252258       -2.0329578603        3.7787199530
 C         1.6287828607       -0.7522912294        5.9841725490
 C         0.0833181575       -2.8047663754        5.4010368067
 O         0.9488536659       -1.3605856379        2.4744764681
 O         2.4947008619       -3.9339499374        4.6632162890
 C         4.0081818686       -2.7455550078        2.4077137001
 C         5.3962032895       -2.4482510447        1.8669780845
 C         5.4858207191       -2.3511544511        0.2032134072
 C         4.6128714363       -1.0688229783       -0.0515734212
 C         5.3028074104        0.3097074376       -0.4169361892
 O         6.3435756305       -2.1481544774        2.5146393897
 O         3.3939159433       -1.0942494457        0.0973751172
 C         6.9973056195       -2.0906386897       -0.1226931226
 C         4.9597662743       -3.6093216178       -0.5249187464
 C         5.7196270790        1.1149108834        0.9232366116
 C         4.5203096022        1.5991866876        1.7346219859
 C         4.2247665020        3.0666186485        1.8222420318
 C         3.4457318433        3.4838645773        0.5486768776
 C         3.6552146627        4.7741540973       -0.1046742665
 C         3.3160798502        3.5245458507        3.0768867358
 C         5.6590425162        3.8452074723        2.0729483074
 O         3.9341773291        0.7393240184        2.3605203106
 O         2.5442213209        2.6908263998        0.1672345375
 C         3.7370961263        4.6667139515       -1.6075703532
 C         4.9705395229        3.8330144778       -1.9996414623
 C         5.1937547152        3.3377824118       -3.4831953632
 C         4.0766383402        2.1983782625       -3.5868723336
 C         4.5466882265        0.9538635616       -4.2829139047
 O         5.7601324756        3.3741502635       -1.1528515770
 O         2.9338012327        2.3928853494       -3.2159327459
 C         4.9440003156        4.6046946554       -4.3126139116
 C         6.6812079656        2.9526376684       -3.6548816113
 H        -6.5054616865        0.4147938458       -6.4178487401
 H        -5.0303155415       -0.5390500293       -5.9921563607
 H        -6.6187926869       -1.0182475171       -5.3894471249
 H        -7.0569536772        0.4035005131       -0.5607748711
 H        -8.5809695631        1.2399507510       -1.1739324844
 H        -4.9957946843        2.9376907608       -2.6918154489
 H        -5.3072389512        1.6574331135       -1.4752146755
 H        -6.4556966918        2.9006742730       -1.7529985554
 H        -8.0335803086        1.7349069432       -4.9211601415
 H        -8.3922881000        2.4404325943       -3.4543235758
 H        -7.1742779633        3.1445195217       -4.3634736679
 H        -9.6506240084       -0.9291140174       -0.5330209542
 H        -8.7474432610       -1.5971737473       -1.7557142340
 H        -6.1360974462       -2.5784532561       -1.8155917226
 H        -5.3703830833       -2.9102670004       -0.3052963017
 H        -7.3697825113       -4.6078522837        2.1148084991
 H        -7.7246646160       -3.0105697094        2.6744561127
 H        -6.1483994991       -3.3732833203        1.7812834236
 H       -10.0987808732       -3.0171358373       -0.0409847152
 H        -9.5375062493       -4.6505895999        0.2822955180
 H        -9.7624446901       -3.5776542026        1.5558127020
 H        -5.1950035115       -5.2424750447       -2.2355396871
 H        -4.4574271188       -4.8527137639       -0.6171083167
 H        -0.8939106266       -1.3576907836       -2.7382768353
 H        -2.5482660031       -1.1912305707       -3.1655485516
 H        -2.4701848517       -5.3827778245       -0.4605627527
 H        -2.1181453215       -3.8539133314        0.4701143507
 H        -0.8809666864       -4.7613465157       -0.2685005562
 H        -0.1174593185       -3.6603604385       -2.4152626611
 H        -1.1212342031       -4.8365266791       -3.1950764636
 H        -1.2719771375       -3.1982721214       -3.6047157271
 H        -1.5778638757        1.0844894730       -2.5441587444
 H        -2.9040708913        0.7755885989       -1.6224316177
 H        -2.2392754717        0.6719081671        2.8672517778
 H        -1.2656020638       -0.5228718969        2.0053128767
 H         0.4134496130        2.9027899093       -0.1028769286
 H        -0.7823559149        3.9855886742        0.4168472896
 H        -0.8835245367        3.3151277785       -1.1541252795
 H        -2.8667267252        2.8116290767        1.5128050180
 H        -3.2608753919        2.3627833776       -0.3028235907
 H        -3.2587143880        1.1970081134        1.0856133665
 H        -1.0121850148       -0.0912796335        4.8281173687
 H         0.2090330470        0.8959595843        4.1754604855
 H         3.4232588114       -0.9792209528        3.6900066881
 H         4.4797074320       -2.1975800966        4.3973514324
 H         0.7159565039       -0.5020041423        6.5711303398
 H         2.0592911774        0.0757397456        5.5040918310
 H         2.5757799007       -0.9387015063        6.5757317436
 H        -0.4514867478       -2.2644561260        6.1534366644
 H        -0.7248556249       -2.9072545159        4.6292106917
 H         0.4238949694       -3.8816998648        5.6759202533
 H         3.9059608287       -3.8753001339        2.4998118106
 H         3.2555007511       -2.5000892780        1.6844043470
 H         6.0637082671        0.2223185769       -1.1525623078
 H         4.5164803006        0.8617855858       -0.9697149276
 H         7.4484254150       -1.3846596582        0.5734537912
 H         7.1694248363       -1.7389206252       -1.1569196180
 H         7.5509364154       -3.0236681909        0.1294333177
 H         3.8644024841       -3.7454027818       -0.3792453268
 H         5.0047427453       -3.3777245003       -1.5479999725
 H         5.5113860149       -4.5051689126       -0.1723179275
 H         6.2739506735        1.9979072013        0.6420277777
 H         6.4380731470        0.5433053206        1.5650229849
 H         2.7319276294        5.3088291038        0.1706860796
 H         4.4104577562        5.4471805628        0.3593831551
 H         3.9530831192        3.4694971181        3.9385710074
 H         2.5397778894        2.7986594013        3.1441795051
 H         2.8707394216        4.4936825295        2.7626467245
 H         6.1835120974        3.4655614710        2.8952571117
 H         6.3095767718        3.9559088873        1.1807237946
 H         5.5250043148        4.8274906243        2.3869478394
 H         2.8006706656        4.0729312578       -1.8961376501
 H         3.7800829928        5.6033753484       -2.1629371909
 H         4.9996281819        1.1153881625       -5.2355726095
 H         5.2647374114        0.4402971109       -3.6111617108
 H         3.8710933581        0.2091464228       -4.5228338547
 H         5.3705293792        5.3770068672       -3.7253378135
 H         3.8593832263        4.7844535466       -4.4424215788
 H         5.5156006878        4.6987352598       -5.2981352353
 H         7.0029826683        1.9260845725       -3.6825050188
 H         7.0872556542        3.3625135830       -4.5897207153
 H         7.2934963306        3.4274796714       -2.9370221959
 Na        1.8829304745        0.5710066841        1.1762917108
