155

 C        -5.7649043449        0.2330826181       -5.5606319831
 C        -5.3629720778        0.8266280360       -4.2034136199
 C        -6.5836386118        1.3654701327       -3.3747777582
 C        -7.4357964953        0.0795034652       -2.7438884614
 C        -8.0872741841        0.2670673830       -1.2961394163
 C        -6.0543287165        2.2886429742       -2.3645257428
 C        -7.6559750635        2.0640723220       -4.2947605166
 O        -4.2448028743        0.8602921135       -3.7312083688
 O        -7.5542294394       -0.8999618923       -3.4205201127
 C        -8.7337030354       -0.9521668765       -0.6658052069
 C        -7.6687306808       -1.8268036488        0.1656711772
 C        -7.8570202128       -3.4537493251        0.4278115709
 C        -7.0381287975       -4.1458133479       -0.6788880166
 C        -5.7820368011       -3.4439523840       -1.2289063549
 O        -6.6984568467       -1.3975830058        0.7421857487
 O        -7.3421765788       -5.2190546630       -1.0952366509
 C        -7.1205443385       -3.8213762199        1.7313705427
 C        -9.3595388798       -3.8465316223        0.4749182731
 C        -4.6795136759       -4.4782123209       -1.5987026160
 C        -3.6656228192       -3.5899567033       -2.3103108424
 C        -2.1440061617       -3.3861303033       -1.7800996117
 C        -2.0076205968       -1.9859260711       -1.2648270454
 C        -1.6483661447       -0.8589394226       -2.3387862539
 C        -1.8171949783       -4.3623055955       -0.5761593237
 C        -1.2650166496       -3.7653252895       -3.0517653748
 O        -4.0309859754       -2.9835875688       -3.3034889809
 O        -2.1873899815       -1.6298220584       -0.1431100554
 C        -1.6740262969        0.5555944798       -1.8051342148
 C        -0.7532313628        0.7834653883       -0.6473857286
 C        -1.2234803432        1.8660789087        0.4147786259
 C        -0.6044923671        1.5294868278        1.7216301082
 C        -1.2406775296        0.3636486734        2.5505037033
 O         0.2094667607        0.1180106008       -0.4688706184
 O         0.3511862378        2.1981220738        2.2016772955
 C        -0.6827153277        3.1592377432       -0.0634879912
 C        -2.8419653400        1.9849581762        0.5429288664
 C        -0.3430809273       -0.0568578431        3.8485666145
 C         0.6769069353       -1.2646191112        3.5948814112
 C         1.2736316921       -1.9675499045        4.8688237252
 C         2.4369444484       -2.8948005491        4.4595712002
 C         3.5841341146       -2.1352254135        3.6327505456
 C         2.0042871515       -0.9842693583        5.9303669527
 C         0.1628961758       -2.7640726086        5.5757718028
 O         0.9811273154       -1.5245307914        2.4373638313
 O         2.4340076259       -4.1056459368        4.6454404815
 C         3.9677094423       -2.9358237507        2.4288734243
 C         5.2789526608       -2.3982702008        1.9223048385
 C         5.5288136587       -2.1620773568        0.3336070923
 C         4.4976166848       -1.0188661015       -0.0225600112
 C         5.1002336871        0.3994663967       -0.1453183168
 O         6.1620733004       -2.0403082667        2.7479985359
 O         3.3102524893       -1.2886762850        0.0643314419
 C         7.0776880102       -1.8742817986        0.0744938836
 C         5.1812942139       -3.4533575682       -0.3847640130
 C         5.6845306224        1.0467360713        1.0662531132
 C         4.5099911740        1.6280387162        1.8692596101
 C         4.2842907844        3.1720820908        2.0097695707
 C         3.5022583083        3.5521135503        0.7161991146
 C         3.6249345529        5.0200567596        0.1087836475
 C         3.3367257640        3.4676278583        3.2878350313
 C         5.6249306404        3.9915465667        2.0438312622
 O         3.6773948258        0.9072257026        2.4383281891
 O         2.6159580915        2.8611314897        0.3191722295
 C         3.8806677925        4.9095070805       -1.4461044688
 C         4.9223673714        3.8253098715       -1.8703797569
 C         4.9839876246        3.3870828465       -3.3438567530
 C         4.0700748613        2.1630232915       -3.6510810492
 C         4.5890857983        0.8655144088       -4.1601585133
 O         5.5009140759        3.2946257990       -0.9641395174
 O         2.9016361724        2.4390348757       -3.5552186243
 C         4.4351223633        4.4446054214       -4.4299984637
 C         6.4565943433        3.0000093929       -3.6092829927
 H        -6.3959186209        0.9076856428       -5.9978447411
 H        -4.9461744414       -0.0070234470       -6.2900023319
 H        -6.3828558809       -0.5999621486       -5.5662122371
 H        -7.2353751040        0.6278585714       -0.6301826348
 H        -8.8669578462        1.0374883749       -1.4291490340
 H        -5.4098457854        3.0498561789       -2.7904418729
 H        -5.5373707575        1.8248538402       -1.4881043869
 H        -6.9417345915        2.8857087364       -1.9062337196
 H        -8.3104808490        1.2569183008       -4.8276392842
 H        -8.2226380070        2.7163086716       -3.6715816406
 H        -7.3058180002        2.7927150380       -4.9819883445
 H        -9.4364617839       -0.6797797579        0.0883970180
 H        -9.4594702062       -1.6474183649       -1.1661214175
 H        -5.8865380420       -2.8274150505       -2.1232106346
 H        -5.3389992796       -2.7708294813       -0.4587125653
 H        -7.0083238936       -4.9181516749        1.8363063740
 H        -7.6745421392       -3.5270352515        2.5995663998
 H        -6.1942256766       -3.3806057404        1.8345502418
 H        -9.7463859331       -3.9119489997       -0.5532553737
 H        -9.6165066134       -4.8880080593        0.9218041183
 H       -10.0975223012       -3.1437586713        0.9810549419
 H        -5.1707023011       -5.2305566014       -2.2808512350
 H        -4.3110945643       -4.9925917871       -0.7568380703
 H        -0.6894204750       -1.1363819256       -2.6523510039
 H        -2.1912274113       -0.9313370181       -3.2891520206
 H        -1.7175508958       -5.3889295015       -0.9159524339
 H        -2.5990933240       -4.2806533256        0.1491390746
 H        -0.8775556538       -4.1835058092       -0.0138884299
 H        -0.3210429518       -3.1541051511       -3.1939075424
 H        -1.0248099956       -4.8366453284       -3.0286722219
 H        -1.9750167822       -3.6736990813       -3.9772543190
 H        -1.4326013779        1.2035624752       -2.6704602041
 H        -2.7082496457        0.9015551526       -1.6794914745
 H        -2.2530174746        0.6081157628        3.0743267216
 H        -1.3264917132       -0.4877293135        1.8229201219
 H         0.3353782881        3.0517566560       -0.5287359216
 H        -0.5559492686        3.9318657119        0.7279413153
 H        -1.3255530656        3.6708951082       -0.7245934107
 H        -3.0680322793        2.4579297284        1.4560465386
 H        -3.1862581641        2.4003828820       -0.3683762262
 H        -3.3471751691        1.0405560778        0.6516480183
 H        -0.9470242640       -0.2184955701        4.7556188742
 H         0.3366553624        0.7561394516        4.1535907647
 H         3.2280316502       -1.1577893053        3.3371080588
 H         4.5493200081       -2.0643272931        4.2703555759
 H         1.7286269909       -1.2878061073        6.8765171804
 H         1.6806179654        0.0573409228        5.7692869317
 H         2.9864705676       -0.7935536180        5.7701021951
 H        -0.7886520353       -2.2526186177        5.3414427479
 H         0.0327967509       -3.7289271497        5.1727359261
 H         0.3599408495       -2.7484216554        6.5933202029
 H         4.0707313395       -3.9835939817        2.6225801442
 H         3.1575238927       -2.8949105867        1.6702810877
 H         5.9192283050        0.2751017659       -0.9245705604
 H         4.3896773138        1.0451768459       -0.6527245131
 H         7.5275860673       -0.9305799421        0.4578440924
 H         7.1770584542       -1.7313134084       -0.9862362959
 H         7.6722316642       -2.6510525249        0.4856182476
 H         4.2049344937       -3.7476976441       -0.0505476747
 H         5.0200717927       -3.1916153794       -1.4750858356
 H         5.8301795004       -4.2365024791       -0.0676105948
 H         6.5080507327        1.7183935864        0.8103952005
 H         6.0662845473        0.2845028211        1.7082362989
 H         2.7342824452        5.6437544846        0.3285362884
 H         4.3755653507        5.6446803079        0.5476453294
 H         3.9092285192        3.1652465705        4.1998960443
 H         2.6065172363        2.6436955449        3.1386217274
 H         2.8461244219        4.4058546980        3.1183530923
 H         6.3925348884        3.4106868588        2.6996319417
 H         6.0994500033        3.9496952247        1.0662255851
 H         5.7367233417        5.0307567315        2.4306756179
 H         2.9496830026        4.6285606671       -1.8599738392
 H         4.1093383084        5.9172799649       -1.8685925706
 H         5.2259644530        0.9719605708       -5.0602297244
 H         5.0070127094        0.1700175371       -3.4818053693
 H         3.7791935364        0.2935842089       -4.7032268020
 H         4.9543613919        5.3896386156       -4.4970783408
 H         3.4055446999        4.7363366740       -4.1264631399
 H         4.4652163290        4.0064093683       -5.3216473794
 H         6.7005314978        2.2612233783       -2.8381048604
 H         6.7457343124        2.6226421426       -4.5648585321
 H         7.1125241974        3.9025250858       -3.4619799679
 Na        1.8520214309        0.3728748188        1.1067468478
