155

 C        -5.4960522758        1.2061601504       -2.6610920360
 C        -6.9070525049        1.5462575076       -2.1405767335
 C        -8.0789911590        1.0922172043       -3.0782702104
 C        -8.0346850272       -0.5134961552       -3.0066498963
 C        -8.5414827740       -1.1538188223       -1.7165032761
 C        -9.3620639327        1.6452309801       -2.4701824013
 C        -7.8991794092        1.4831963905       -4.5905476675
 O        -7.0989781640        1.9258312004       -0.9949229035
 O        -7.6224758471       -1.1060503968       -3.9874770822
 C        -7.9541660775       -2.5380349606       -1.4958586519
 C        -6.4884059993       -2.6931102295       -1.0079374876
 C        -5.9940154421       -4.1360517729       -1.0774970130
 C        -5.1221653136       -4.3445682316       -2.4157086498
 C        -4.5578840893       -3.1237058598       -3.1610698534
 O        -5.8084349774       -1.7034532979       -0.6699636659
 O        -5.0523976108       -5.5074109769       -2.8370053270
 C        -5.1815965253       -4.5303697618        0.2653819979
 C        -7.2202357287       -5.2981306818       -1.1973178401
 C        -3.6020130459       -3.5951285242       -4.3485073400
 C        -2.2929609977       -2.8075272119       -4.4549973836
 C        -1.2169937268       -3.0154034372       -3.3008546612
 C        -1.2168330531       -1.8214280051       -2.3264997984
 C        -0.3683311097       -0.6299930087       -2.6661316294
 C        -1.5713921897       -4.2837067528       -2.3939255355
 C         0.1744881802       -3.1930038387       -4.0150789858
 O        -1.9774309145       -2.1012040799       -5.3893718258
 O        -1.8739439804       -1.7695192874       -1.2871757046
 C        -0.8324960940        0.7512843639       -2.1098933621
 C        -0.2589814534        0.8654102970       -0.6781975791
 C        -1.0751107861        1.6220551064        0.4664092949
 C        -0.8637689541        0.7602379243        1.7103044731
 C        -1.4570095772       -0.5964254587        1.8759831774
 O         0.8581034045        0.3647219647       -0.4564579172
 O        -0.0846859990        1.2003615499        2.5600994620
 C        -0.5739762418        3.1160044036        0.5999507447
 C        -2.6128946958        1.8758981977        0.2584138695
 C        -1.0524031690       -1.4114942476        3.0566091506
 C         0.4244671491       -1.9002939628        3.0081364096
 C         0.6700762488       -3.1695992765        3.9608711999
 C         2.2355963260       -3.7047405044        3.7778811073
 C         3.4353548552       -2.9910786388        4.2071071448
 C         0.6430154181       -2.6529718701        5.3936475171
 C        -0.2608481405       -4.3863710566        3.8454552269
 O         1.3481639312       -1.3065965463        2.5223753267
 O         2.3402547614       -4.7459839509        3.1754180174
 C         4.3908834669       -2.9897781859        2.9458659174
 C         5.4089131751       -1.8415981859        3.0311393286
 C         6.1762878287       -1.3669057705        1.6832736302
 C         5.3954660699       -0.1322336271        1.2395636449
 C         5.9314541064        1.2242971299        1.4613220093
 O         5.5819613256       -1.2494258469        4.0616678546
 O         4.2878249841       -0.3278996943        0.7515752316
 C         7.6903949994       -1.2703411129        1.9560160052
 C         5.9404872526       -2.3306356880        0.5203792679
 C         5.8137316328        1.6063753304        2.9367106336
 C         4.2821500049        1.8217378847        3.2304592667
 C         3.8263789634        3.3017985804        3.0102083416
 C         3.6379895967        3.6580355964        1.4504075272
 C         3.9882741439        5.0876560102        0.9574667923
 C         2.3290627985        3.3784926821        3.5745646489
 C         4.8945111826        4.2749404730        3.6454624959
 O         3.5137316692        0.9656370352        3.5415420266
 O         3.1506984374        2.8006305921        0.7325804075
 C         3.4249464743        5.3539915612       -0.3840289507
 C         3.8590395901        4.2760908032       -1.4892020178
 C         2.9403412924        4.2066019205       -2.7974612748
 C         1.9998179153        2.8844439831       -2.5961069717
 C         2.3544493612        1.4989505605       -3.1394542589
 O         4.8555142666        3.5813115818       -1.3507357441
 O         1.0317348704        3.1463572015       -1.8874738854
 C         1.9935148782        5.4597859525       -3.0529570215
 C         3.9071472564        3.8476943426       -3.9729229405
 H        -4.9138294904        2.1937423880       -2.5496036477
 H        -4.9808499108        0.4097384015       -2.0368609302
 H        -5.3907836721        1.0025766448       -3.6874300889
 H        -8.2057238801       -0.6328105633       -0.8330902640
 H        -9.6160988578       -0.9901390147       -1.7672630771
 H        -9.2688553872        2.6780876637       -2.4396938785
 H        -9.4083136740        1.3903189580       -1.4362697769
 H       -10.2925967006        1.4954662577       -2.9950501327
 H        -7.2711828662        0.9053732376       -5.1628452405
 H        -8.8573907799        1.4208617893       -4.9926326773
 H        -7.7037699736        2.4997780031       -4.7015630575
 H        -8.6776933981       -3.0803409778       -0.7542929897
 H        -7.9592351508       -3.0430866980       -2.4527443119
 H        -5.3499302167       -2.4193074639       -3.4471651465
 H        -3.9405470190       -2.6275603035       -2.3932932127
 H        -4.9865099346       -5.6169601367        0.2190872899
 H        -5.7654761202       -4.3033469567        1.1474638375
 H        -4.2740941049       -4.0649626986        0.3884858901
 H        -7.8732335573       -5.1342890977       -2.0488836338
 H        -6.6059964094       -6.1569437625       -1.3409849605
 H        -7.7923805856       -5.2695341649       -0.3364190067
 H        -4.0735677904       -3.5434583188       -5.3233518547
 H        -3.4503755646       -4.7127295542       -4.2056225144
 H         0.6425468109       -0.7738022246       -2.3754142616
 H        -0.2126169136       -0.5087226880       -3.7572613765
 H        -1.2446860291       -5.2006480466       -2.9506973893
 H        -2.5859930741       -4.3817075784       -2.0986835294
 H        -0.9480151961       -4.2215573737       -1.4835729597
 H         0.9362634764       -2.8264593500       -3.4706724448
 H         0.3301430376       -4.2629474667       -4.1995430458
 H         0.0799778365       -2.7090374288       -4.9709302027
 H        -0.4238965202        1.6234140783       -2.7237421314
 H        -1.9301846247        0.8302021839       -2.2615463554
 H        -2.5729990479       -0.6537672449        1.7726186313
 H        -0.8899138425       -1.1653195209        1.0228385404
 H         0.4901902717        3.2504143078        0.7485138506
 H        -1.2041309827        3.5798017305        1.3988719106
 H        -0.7855898819        3.6078140439       -0.2714851589
 H        -2.9231944500        2.4458945118        1.1292491162
 H        -2.6963190566        2.4459414913       -0.6760161549
 H        -3.2296818808        0.9483797327        0.2240636313
 H        -1.7967316361       -2.2084064666        3.1604255123
 H        -1.1497255573       -0.7819151586        3.9290428435
 H         3.1596723566       -2.0212955348        4.7200154866
 H         3.8103777827       -3.5272198892        5.1609198790
 H        -0.1540826144       -1.9447541866        5.6409514646
 H         1.5255374348       -2.0126426031        5.7577819346
 H         0.5086805751       -3.5190094924        6.0250729512
 H        -0.2318777384       -4.8800055105        4.9069146366
 H        -1.3266470482       -4.3088864362        3.5724848248
 H         0.1612109988       -5.2661563817        3.3940573094
 H         5.0143578764       -3.9027865733        2.9433033019
 H         3.8354931974       -3.0244828512        2.0441483017
 H         6.9651715544        1.0932473912        1.1900766951
 H         5.5433633489        1.9342712412        0.6773906311
 H         7.8713014794       -0.6186038515        2.7819865797
 H         8.1630163505       -0.9174262683        0.9990664928
 H         8.0635749211       -2.1982394925        2.3026521855
 H         4.9093532479       -2.4346945677        0.1945107941
 H         6.4024742673       -2.0503739459       -0.3879427643
 H         6.3702250572       -3.2873264103        0.8704220809
 H         6.3472596915        2.4971148844        3.1824109748
 H         6.2477603651        0.7900315618        3.5246972175
 H         3.8328479446        5.9723832173        1.6582924497
 H         5.1175571014        5.0490076230        0.9690634307
 H         2.1497204233        4.2428889555        4.2558225768
 H         2.0455798327        2.6083195092        4.1905218308
 H         1.6908961532        3.4400190628        2.7454715522
 H         5.3457559390        3.9829720492        4.6238774044
 H         5.6985701154        4.3499152744        2.9199007872
 H         4.3702554425        5.1411893515        3.7752553109
 H         2.3176590589        5.4012112337       -0.3262813104
 H         3.9094070598        6.2764173610       -0.7101944022
 H         3.4062464316        1.2931457235       -3.1735726336
 H         1.9075187510        0.7438211507       -2.5703430647
 H         1.9431641326        1.3900007418       -4.1675970599
 H         2.5685699118        6.3330325933       -3.1310927573
 H         1.2468305596        5.5203916589       -2.3800760407
 H         1.5944059916        5.3553631512       -4.0529801361
 H         4.7615989517        3.4379372573       -3.4921796459
 H         3.2943718171        3.2048629625       -4.5930242462
 H         4.0430310996        4.7813255541       -4.5412346004
 Na        2.2689522253        0.6091591547        1.5734694429
