155

 C        -5.8568755625        1.1089332112       -2.2426380551
 C        -7.2785080807        1.5815577308       -2.0314089861
 C        -8.4227612979        0.7154693112       -2.7729611276
 C        -8.1310209414       -0.7760231080       -2.8069703388
 C        -8.5659879679       -1.6862999899       -1.5565473236
 C        -9.7631647436        0.8661542992       -1.9615021261
 C        -8.3874510470        1.2250910368       -4.2549857825
 O        -7.6290841544        2.5040248407       -1.3264139785
 O        -7.7180662563       -1.3202345197       -3.8571856002
 C        -7.8827887803       -3.0119577770       -1.7140057165
 C        -6.4033109293       -2.8308260781       -1.6421566674
 C        -5.4911318127       -4.1299232807       -1.7380328687
 C        -4.9533634993       -4.2970730822       -3.2135845008
 C        -4.1317160719       -2.9722403749       -3.8230449492
 O        -5.9138270738       -1.7101476361       -1.4971336008
 O        -5.1116357802       -5.2635220503       -3.8665932887
 C        -4.3648806134       -3.9860839138       -0.6621622602
 C        -6.2787783165       -5.4947142948       -1.4452616417
 C        -3.0561421935       -3.5433025219       -4.7943830309
 C        -1.8080282180       -2.7774836453       -4.6568446977
 C        -0.9285105599       -2.9623560274       -3.2821420944
 C        -1.2321944225       -1.7201832306       -2.3434313463
 C        -0.7985179976       -0.3587588534       -3.0039691981
 C        -1.4404386498       -4.3153411858       -2.5603111598
 C         0.5737879516       -2.9793343581       -3.7035038529
 O        -1.2220454061       -2.1750281229       -5.5454742372
 O        -1.6953080700       -1.7221354023       -1.2509930772
 C        -1.0347804961        0.8579612753       -1.9985276938
 C        -0.5639927165        0.6575100477       -0.5857837827
 C        -1.5035852593        1.3124673206        0.5193079199
 C        -0.9519043238        0.7527608679        1.9283482210
 C        -1.6219945163       -0.5264200217        2.5196798867
 O         0.4738764694        0.0716756401       -0.3276034145
 O         0.0265841819        1.2416674087        2.4352545352
 C        -1.3140494592        2.9375452076        0.3025383898
 C        -2.9975956978        0.8929844975        0.5374099316
 C        -0.6225058694       -1.2977821774        3.4372450891
 C         0.6680690704       -2.1024055009        3.0668529056
 C         0.7795049289       -3.5142361115        3.7734309277
 C         2.3078662940       -4.0799388175        3.4728699797
 C         3.4000330420       -3.2996210025        4.2252670484
 C         0.5480922071       -3.5427050846        5.2713722486
 C        -0.0968763782       -4.4002615879        2.9119685648
 O         1.5436335033       -1.5306735931        2.4366226857
 O         2.5594037009       -4.9737296368        2.6681358675
 C         4.5077448984       -3.2383263756        3.0974150795
 C         5.4075121707       -1.9706710784        3.2007682707
 C         6.2120780292       -1.2920398483        1.9781006911
 C         5.4069813629       -0.0665165169        1.5736032038
 C         6.0816202379        1.2798619934        1.7569244528
 O         5.7141636576       -1.5385238462        4.2880845909
 O         4.3043842729       -0.1682731441        0.9897714101
 C         7.6231471905       -0.9622096609        2.5145414627
 C         6.3426313448       -2.2598079518        0.8105970188
 C         5.6820721695        1.8010025279        3.1615174663
 C         4.2266977423        1.9814281093        3.3405879221
 C         3.5827390052        3.4181666532        3.4446659172
 C         2.9902484168        3.7558741245        1.9254412876
 C         3.4766561564        5.1094468678        1.2482139544
 C         2.2790477135        3.3264170738        4.3814054269
 C         4.5944505254        4.5013397194        3.9497751875
 O         3.5322577480        0.9767942192        3.3808980314
 O         2.1118782314        3.1147032950        1.4075037454
 C         3.0498891895        5.5666967547       -0.1499777172
 C         3.7410046674        4.6818570221       -1.2429730502
 C         3.1601585934        4.7796226390       -2.6786697013
 C         2.3489064567        3.4139100955       -2.7270880066
 C         3.0129974130        2.0689964370       -2.4842608113
 O         4.7781699190        4.0820327452       -0.9647348602
 O         1.1356929078        3.4794220848       -2.9528671340
 C         2.2403025778        5.9087296236       -3.0331081724
 C         4.2477873318        4.5783795748       -3.8375005993
 H        -5.8129542055        0.0432955581       -2.0770684720
 H        -5.5259628587        1.3670868464       -3.2811324296
 H        -5.0945014634        1.7481631834       -1.6615214561
 H        -8.4602586938       -1.4584597859       -0.5118579598
 H        -9.6661512053       -1.7524367956       -1.7542772273
 H       -10.2367509441        1.8635060473       -2.2732920930
 H        -9.6126567088        0.9211445634       -0.8402103463
 H       -10.4431068249        0.0322918533       -2.0667209025
 H        -7.4444120519        0.8735287885       -4.8209880442
 H        -9.2938486855        0.9242166353       -4.8463759681
 H        -8.2889931993        2.3487747961       -4.2562052642
 H        -8.3352161515       -3.8693231823       -1.0503426451
 H        -8.1756795023       -3.5002034913       -2.6095388537
 H        -4.9957774060       -2.5187122612       -4.3228688666
 H        -3.7633929584       -2.3370071411       -3.0412685476
 H        -3.6979753373       -4.8298558319       -0.7365598212
 H        -4.7823470516       -4.0124217584        0.3644129222
 H        -3.7046591732       -3.0557601182       -0.7864579116
 H        -6.8113924970       -5.6188225788       -2.4104455796
 H        -5.5474631237       -6.2637498859       -1.4064766102
 H        -6.9002465290       -5.4312385200       -0.5484102517
 H        -3.4364346255       -3.4418625556       -5.7907972183
 H        -2.8904867905       -4.5782281285       -4.5586738903
 H         0.2188261596       -0.3410817857       -3.4013314842
 H        -1.4395495867       -0.0926089279       -3.8897024683
 H        -1.0168364030       -5.2448078323       -2.9739411232
 H        -2.5232508820       -4.3766907713       -2.6311689032
 H        -1.3163807818       -4.3332547893       -1.4538697218
 H         1.1538170192       -2.7943063655       -2.7364786848
 H         0.8249791489       -3.9789007890       -4.1020452805
 H         0.7545061273       -2.2100434441       -4.4451059982
 H        -0.4681471839        1.7086198064       -2.3853663178
 H        -2.1250252127        0.8996436274       -2.0483009890
 H        -2.5358661285       -0.3128214345        3.0543899464
 H        -2.0406224892       -1.1820175893        1.7322747475
 H        -0.3390204397        3.2918021198        0.4889264197
 H        -1.9621143493        3.4340577033        1.0914929915
 H        -1.7228252335        3.2432653514       -0.6900158584
 H        -3.4854309032        1.2003099196        1.4267459492
 H        -3.6153369512        1.4208585089       -0.2013924612
 H        -3.1301924012       -0.2007132338        0.3141616753
 H        -1.3000750462       -1.9029223252        4.0296679468
 H        -0.2184143853       -0.4842125032        4.0135955508
 H         3.0808122939       -2.2938230221        4.3525239010
 H         3.8176888827       -3.9224113517        5.0966399270
 H        -0.4743911754       -3.2160201450        5.4383434571
 H         1.2903851735       -3.0286195557        5.8247116231
 H         0.5241194465       -4.5263524252        5.7283902332
 H        -1.0582157852       -3.9909524170        2.8253485922
 H         0.2190802332       -4.7510243793        1.9527293332
 H        -0.1754167418       -5.3685393708        3.3577720967
 H         5.1475319365       -4.1255583143        3.3490395398
 H         4.0677141991       -3.3313928592        2.1123130092
 H         7.1102840162        1.2325629753        1.5805090091
 H         5.6113244925        1.9702172775        1.0317038873
 H         7.5204246743       -0.2874215780        3.3835934580
 H         8.1243853991       -0.4880329591        1.6829496940
 H         8.1319014564       -1.8693206319        2.6076107664
 H         5.4015987292       -2.4650765609        0.3264374293
 H         7.1573564704       -1.8459009628        0.1386928871
 H         6.7348011822       -3.2253417078        1.1421496969
 H         6.1929562446        2.7439564340        3.4152577507
 H         6.0733551290        1.0510892274        3.9047064432
 H         3.5714864966        5.9297233576        1.9436075006
 H         4.4665892154        4.7440287217        1.1464872881
 H         1.2834563763        3.5213031994        3.9877388863
 H         2.3115072253        4.0925843247        5.2201205139
 H         2.1133861929        2.2800827215        4.7964940607
 H         4.8564346600        4.1080832313        4.8814143658
 H         5.4498683839        4.6232236331        3.2450918256
 H         4.2388549949        5.5075749826        4.0043864541
 H         1.9488093752        5.5131498884       -0.2767727796
 H         3.4145677134        6.5391316765       -0.4432271911
 H         2.2821901488        1.3387384753       -3.0035595575
 H         3.9957132843        1.8558651812       -2.9006249427
 H         2.9807248353        1.7426867221       -1.4490913789
 H         2.8802616983        6.8078909727       -3.2712751335
 H         1.3684634841        6.1275207948       -2.2954320244
 H         1.9040798854        5.4999064886       -3.9633536619
 H         5.0312317722        3.8991094759       -3.5105834166
 H         3.6020641794        4.1776193655       -4.5427565133
 H         4.5441554260        5.5778793617       -4.1600007495
 Na        2.0879386748        0.4994726341        1.3297199021
