155

 C        -6.4919804947        1.7231362447       -2.9032728853
 C        -7.7388314677        1.5411321551       -2.1352611140
 C        -8.8349413178        0.5969983485       -2.9068089277
 C        -8.1788435984       -0.8359739062       -2.8948155700
 C        -8.4445098831       -1.8259414523       -1.7673289970
 C       -10.1551797201        0.6296934233       -2.0192584200
 C        -9.3193245895        1.1356892030       -4.2751907004
 O        -7.8948475054        1.8486424590       -0.9389458453
 O        -7.4859240213       -1.0819250259       -3.8882830193
 C        -7.6655588811       -3.1153650012       -2.0706941064
 C        -6.2085824126       -3.0009992637       -1.7574120926
 C        -5.3587530148       -4.2845437712       -1.9337479396
 C        -4.7095232610       -4.2111678035       -3.3187206557
 C        -3.7463066591       -2.9879162172       -3.6779983411
 O        -5.7301857550       -1.9530621567       -1.3275915008
 O        -4.7606854363       -5.1095652947       -4.1324927423
 C        -4.2325380416       -4.3470302547       -0.8310741274
 C        -6.2464859115       -5.5487192613       -1.8653222778
 C        -2.8309985597       -3.4198887647       -4.8645391064
 C        -1.5048701132       -2.5699319055       -4.7800921121
 C        -0.5896438560       -2.8291297987       -3.4758514667
 C        -0.7998162692       -1.7439203554       -2.4688373120
 C        -0.1903956291       -0.3891287918       -2.7039809731
 C        -0.7844383042       -4.1486416807       -2.7436043586
 C         0.9454578123       -2.6977273779       -3.9511382537
 O        -1.1334158910       -1.8314049314       -5.6584442777
 O        -1.4483353286       -1.9338297216       -1.4030844557
 C        -0.8948237118        0.7794664092       -1.9081326058
 C        -0.4356402501        0.7512735576       -0.4443781468
 C        -1.5432573851        1.0033560118        0.6671173620
 C        -0.9959501214        0.5311291265        2.0660841778
 C        -1.4891254008       -0.7166139116        2.7762878468
 O         0.7517403363        0.7062571735       -0.1795477761
 O        -0.1622619357        1.3195267184        2.5760991781
 C        -1.7533152489        2.6049801972        0.6433344960
 C        -2.8546411383        0.2239665116        0.2776010157
 C        -0.5756230441       -1.3107927236        3.8700038228
 C         0.7208810577       -2.0081652969        3.2876998898
 C         0.8442309836       -3.6636283459        3.5399981095
 C         2.3884222156       -4.2342054600        3.1708095548
 C         3.5002991237       -3.2971558607        3.8119983306
 C         0.3994568602       -4.0427090563        4.9631982671
 C        -0.0295586768       -4.4252723062        2.5885504889
 O         1.5149423798       -1.4832970623        2.5738370873
 O         2.5618418921       -5.1331758823        2.3673013725
 C         4.4667064713       -2.8963531516        2.6003252584
 C         5.4995580575       -1.8707944137        3.0459306396
 C         6.3031149606       -1.0513842552        1.8891162963
 C         5.3433579416        0.0486835734        1.3823653347
 C         5.5240629658        1.4535204706        1.9153544882
 O         5.8157344797       -1.6984976158        4.2121914252
 O         4.3937757622       -0.3263656085        0.7260120169
 C         7.6404459104       -0.6579138257        2.5560373491
 C         6.5304052491       -2.0559021077        0.7591235817
 C         5.2564044716        1.7329128223        3.4198772734
 C         3.7431064799        1.9720894479        3.6894062847
 C         3.1637837083        3.4380754325        3.5164501895
 C         3.0099145996        3.7132649858        2.0591199419
 C         2.5571712349        5.1474102932        1.5863558708
 C         1.7914807642        3.4264699714        4.2140622196
 C         4.1602734718        4.4707375818        4.0611400643
 O         3.0454328089        1.0163434222        3.9188419630
 O         2.9050653737        2.8090574580        1.2211868161
 C         2.2827528649        5.3209273158        0.0200387658
 C         3.5090922299        5.0197502382       -0.8419836557
 C         3.2449086844        4.8287801121       -2.2968080130
 C         2.4892851411        3.4497761224       -2.7301070847
 C         3.2268222444        2.1342430227       -2.4381882622
 O         4.6396549616        4.8354717244       -0.4100879768
 O         1.3635096064        3.5372146550       -3.2195840930
 C         2.3842898525        5.9936732970       -2.8462861458
 C         4.5929002912        4.8979146751       -3.0607425569
 H        -6.6394024970        2.3884050001       -3.7702899395
 H        -5.5983419999        2.0743712000       -2.2083284362
 H        -6.2269864669        0.7669894001       -3.3417529686
 H        -8.1171023351       -1.4456093814       -0.7786208146
 H        -9.4753089239       -2.1028417871       -1.8186579127
 H       -10.6605082098        1.6267612040       -2.0982098564
 H        -9.7901123928        0.4892801987       -0.9375545732
 H       -10.9090733969       -0.1243853424       -2.3990864170
 H        -8.5342108704        1.1520635020       -5.0992911050
 H       -10.0785546340        0.4740070645       -4.5911535530
 H        -9.7587268386        2.0650563428       -4.2169914789
 H        -8.2366776529       -3.9469887415       -1.7499574947
 H        -7.7395242687       -3.3602133605       -3.2176635977
 H        -4.2543896389       -2.0903076085       -4.0078821221
 H        -3.1020069833       -2.6071178358       -2.8325000540
 H        -3.4770159620       -5.1728159792       -1.0417446085
 H        -4.6462290913       -4.5264015892        0.1882711197
 H        -3.6972555343       -3.4373295785       -0.7890222854
 H        -6.9732599762       -5.5849200935       -2.7095460903
 H        -5.6401829992       -6.3887489848       -1.9071571398
 H        -6.8180941373       -5.6139468436       -1.0046258388
 H        -3.2503649616       -3.1401135754       -5.8464594687
 H        -2.5781712468       -4.4984221006       -4.8778269409
 H         0.8428074308       -0.4297360436       -2.3226348506
 H        -0.2116754025       -0.2157250580       -3.7958221523
 H        -0.9603561277       -5.0175078621       -3.4449638083
 H        -1.5824524912       -4.2500229315       -2.1049893208
 H         0.1232535214       -4.2554421847       -2.1092828957
 H         1.5520082912       -2.3594443746       -3.1753221418
 H         1.2906379183       -3.7114305782       -4.2594580435
 H         0.9706410091       -2.0718477023       -4.7733534257
 H        -0.4232378005        1.7227360296       -2.3374849057
 H        -1.9716414012        0.6847740309       -2.0918405992
 H        -2.6127602593       -0.7333920510        3.0132592759
 H        -1.5587223939       -1.4479544812        1.9070945615
 H        -0.7845359079        3.0815099386        0.8492995273
 H        -2.4629867975        2.9059056854        1.4752091963
 H        -2.0326976276        2.9301214812       -0.2916954263
 H        -3.3753076940       -0.0167507877        1.2077963547
 H        -3.6587745524        0.6839317832       -0.2866741415
 H        -2.7285532316       -0.7341599083       -0.1977025465
 H        -1.1704435867       -2.0059549871        4.4280066284
 H        -0.3662826456       -0.4937685409        4.5057969975
 H         2.9769859352       -2.4039252433        4.2935460723
 H         4.0138301497       -3.8868551069        4.6527560000
 H        -0.3176381347       -3.4400238390        5.4340584299
 H         1.2772065106       -3.9078119834        5.6527695010
 H         0.0823358464       -5.0438898867        4.9214349974
 H        -1.0770613145       -4.0487400723        2.4472761020
 H         0.3525122628       -4.3596935882        1.6013709400
 H        -0.2336167018       -5.4182507533        2.8832348284
 H         4.9174797025       -3.8393285960        2.2827807180
 H         3.8870399520       -2.4851358426        1.7545995753
 H         6.6030827585        1.6841986563        1.7952397466
 H         4.9479509062        2.0874911449        1.2572467428
 H         7.4354947065       -0.0978182052        3.4196181856
 H         8.2552969226       -0.1006406494        1.8225509798
 H         8.0493579725       -1.5386561793        3.0245941016
 H         5.5986934393       -2.2935385685        0.2052816407
 H         7.1115847326       -1.6555694106       -0.0146852434
 H         7.1243562288       -2.8924019548        1.2136573077
 H         5.9969800170        2.5139179051        3.7173823951
 H         5.4961926597        0.8064049958        3.9772039130
 H         1.7472560183        5.5206076303        2.2480126256
 H         3.4534513113        5.7899251171        1.7639933869
 H         1.7072258255        2.5450388939        4.8797752941
 H         0.9575381088        3.3032152790        3.5937114098
 H         1.5664079474        4.2018175145        4.9447301831
 H         4.3431687743        4.4276476214        5.1356896639
 H         5.1400794989        4.3645635829        3.6067287040
 H         3.7114607554        5.3475955767        3.9219642992
 H         1.5675184272        4.5755314448       -0.3650911586
 H         1.8658253547        6.3196853333       -0.2861918681
 H         3.2570303290        1.8717379879       -1.3536925486
 H         2.7914800365        1.3247036502       -2.9697269013
 H         4.2865980016        2.1674213805       -2.8310001055
 H         2.8789762600        6.9417266171       -2.6730643802
 H         1.4574086203        6.0119362601       -2.3278188801
 H         2.1949860368        5.8029886834       -3.8102032263
 H         5.1600376690        4.1106464658       -2.6163637010
 H         4.3915033838        4.6790806690       -4.1365919664
 H         5.0412400694        5.8781456973       -2.8259651771
 Na        2.1502748682        0.3956434045        1.6659362284
