155

 C        -9.3603809792        2.9151875395       -2.7567316694
 C        -8.6633510560        1.5431437252       -2.6080096631
 C        -9.4806463408        0.1975897165       -3.1066001098
 C        -8.3873097508       -0.8203060941       -3.5342657942
 C        -7.4263050753       -1.4409954031       -2.3898320029
 C       -10.1439236025       -0.3153787126       -1.8356499056
 C       -10.3850602301        0.5462983271       -4.3523032514
 O        -7.5123787245        1.4118619118       -2.1548362722
 O        -8.2791390701       -1.0995655958       -4.7043196944
 C        -6.5773786692       -2.6040527809       -2.9585811953
 C        -5.6262631002       -3.1828953602       -1.9330530853
 C        -4.8697151855       -4.6132930284       -2.3681707015
 C        -3.9573933383       -4.6025455630       -3.6119085193
 C        -2.5653278298       -4.0139419871       -3.4929280358
 O        -5.2272023086       -2.5584027029       -0.9632310354
 O        -4.3045445176       -5.0257319822       -4.6642435529
 C        -4.0523624082       -5.2004999397       -1.1669918165
 C        -6.0751962499       -5.5419747059       -2.7164715305
 C        -1.8345998474       -3.8753148306       -4.9338093845
 C        -1.0622202154       -2.5852781610       -5.0138845853
 C         0.3643898299       -2.3022544451       -4.4036643318
 C        -0.0009921519       -1.5240268387       -3.0829959861
 C         0.3736022387        0.0075512506       -3.0034098911
 C         0.9351862276       -3.6756182013       -4.0694367224
 C         1.2429244578       -1.5393962524       -5.4453221373
 O        -1.6825297004       -1.5468590130       -5.2901692243
 O        -0.5523683460       -2.0507107384       -2.1642259943
 C        -0.4671633471        0.8873503073       -2.1188955637
 C        -0.2178586020        0.7147365800       -0.6407201898
 C        -1.6153893029        0.5626821962        0.3248963007
 C        -1.2107949610       -0.1580253260        1.6443674494
 C        -1.3858524218       -1.7014468569        1.7524031359
 O         0.8520833705        0.8174646765       -0.1457041600
 O        -0.8619452466        0.4688160597        2.6712982106
 C        -1.9315599142        2.0956438891        0.6481946214
 C        -2.7906779377       -0.1643045304       -0.3494435812
 C        -0.8929032936       -2.2784264654        3.1341470811
 C         0.6916990607       -2.5836934408        3.0927533309
 C         1.2816100663       -4.0208413089        3.3729855231
 C         2.7029725754       -4.1468998596        2.5128826317
 C         4.0070646114       -3.3036649684        3.0217425892
 C         1.5059402808       -4.0537073151        4.9576122232
 C         0.2912820559       -5.1274127908        2.8281064545
 O         1.4172992341       -1.6786123538        2.6911731432
 O         2.8418571637       -4.7214826675        1.4417473430
 C         4.7835661581       -2.5631509581        1.9190558697
 C         5.7686505507       -1.5327238468        2.6283154447
 C         6.1506958131       -0.2294936875        1.8883041213
 C         4.8642479734        0.6080436070        1.9068269588
 C         4.9582863186        2.0840353747        2.4073862281
 O         6.1041807089       -1.6837282467        3.8028198626
 O         3.8650097539        0.1384978908        1.3451517880
 C         7.3893670666        0.2675183896        2.5830642127
 C         6.5016650971       -0.6090963767        0.4235820812
 C         4.7514275195        2.1311702964        3.9234311776
 C         3.2743024505        2.0108401798        4.3571684692
 C         2.4180024977        3.3597035603        4.4399274953
 C         2.0992427655        3.8374672951        2.9163572820
 C         2.1239671529        5.2992086254        2.4942989936
 C         1.0619160646        3.0477861286        5.0112634851
 C         3.1641619419        4.5078435664        5.1200374736
 O         2.6367988253        0.9705822229        4.3529070839
 O         1.7443854477        3.0090212616        2.1082662825
 C         2.0132430653        5.4473250287        0.8994394151
 C         3.3982994771        5.1852570360        0.2042800475
 C         3.3059095935        4.9459696565       -1.3556937717
 C         2.7717626377        3.3836436218       -1.3709862025
 C         3.7813562237        2.3477765854       -1.3833094858
 O         4.4683641408        4.8751086358        0.7654173301
 O         1.5839761129        3.1401409548       -1.4442537459
 C         2.2106685037        5.8130445599       -2.0445104337
 C         4.6017177181        5.0939249798       -2.1424873633
 H       -10.2799680661        2.8326464859       -2.2682886891
 H        -8.8119609118        3.6848899503       -2.2240559251
 H        -9.4895357748        3.1558680691       -3.7780576137
 H        -6.8577345458       -0.5239381434       -2.1512627236
 H        -7.8210621267       -1.6502345071       -1.3978324936
 H       -11.0456119534        0.3092676092       -1.6624107688
 H        -9.4518366859       -0.1550449826       -0.9733099629
 H       -10.5029759250       -1.4141536568       -2.0082109640
 H        -9.7459036288        1.1616273085       -5.0196553109
 H       -10.6113123443       -0.3022631579       -4.9072026134
 H       -11.1993684124        1.0699331827       -4.1366809998
 H        -7.2877072158       -3.3462940780       -3.4071580625
 H        -6.0291204181       -2.2398749751       -3.7837706174
 H        -2.6223495540       -3.0092288772       -3.0895133678
 H        -1.7809564502       -4.6288110156       -2.9736690988
 H        -3.5512092435       -6.1173033241       -1.4555024637
 H        -4.7722042517       -5.4066975839       -0.3648883027
 H        -3.3234603862       -4.5081858231       -0.6401752743
 H        -6.2795794593       -5.5588981930       -3.8080358463
 H        -5.9990873355       -6.6091987514       -2.4551151188
 H        -7.0498825309       -5.3234217569       -2.3411553177
 H        -2.5543177780       -3.7936637444       -5.7744255276
 H        -1.0827632146       -4.6704105499       -5.0246053524
 H         1.4080872209        0.0160930732       -2.7950752322
 H         0.2946696381        0.3766941315       -4.0636427999
 H         0.8235462482       -4.3097056914       -4.9148763105
 H         0.3149297548       -4.1910094523       -3.2652347320
 H         1.9515933996       -3.6301306368       -3.7155831751
 H         1.8364250708       -0.8514063428       -5.0323125986
 H         1.9607132947       -2.2222855692       -5.9218544051
 H         0.6983935307       -1.0884727762       -6.2220875400
 H        -0.0533133154        1.8413765652       -2.4153279184
 H        -1.4902837185        0.9283919823       -2.4282589091
 H        -2.4461883849       -1.8481316854        1.7448152615
 H        -0.8616158143       -2.1906347834        0.9099313101
 H        -1.4435897798        2.3944598008        1.5682003896
 H        -2.9401362433        2.0182165087        0.8806463806
 H        -1.7381561797        2.8432255120       -0.1701339914
 H        -3.4899626500       -0.7213558322        0.2529591020
 H        -3.4252305140        0.5965853141       -0.7979503110
 H        -2.5125331099       -0.8182877964       -1.1947157728
 H        -1.4442061528       -3.2457547179        3.2660085338
 H        -1.1807877895       -1.7641657816        4.0653094371
 H         3.5959000943       -2.4825288401        3.6726212997
 H         4.6857115662       -3.9911308543        3.5070350696
 H         0.6823281308       -3.5790857658        5.4338534365
 H         2.2371540399       -3.3846177493        5.1810681498
 H         1.6577163541       -5.1034621563        5.2340097607
 H        -0.7128224026       -5.0454476660        3.0796281813
 H         0.3990990038       -5.2229521346        1.7319996250
 H         0.6144152394       -6.0646130200        3.3425734517
 H         5.4099987445       -3.3092600831        1.3657205108
 H         4.1100406728       -2.0634880665        1.2581512352
 H         5.9928950399        2.3520002498        2.2208714765
 H         4.2651373395        2.7753285873        1.8120434322
 H         7.2930922013        0.4630351703        3.6708167736
 H         7.6858490897        1.1904265822        2.1257313657
 H         8.1940401093       -0.4279654134        2.6439803990
 H         5.6065025154       -0.9550380305       -0.0402486006
 H         6.7436664599        0.2722011152       -0.2611045249
 H         7.3660432294       -1.2454185332        0.3493296482
 H         5.1425977677        3.0617504159        4.2639003355
 H         5.3988914964        1.3415188701        4.3067447584
 H         1.2753637648        5.9565959807        2.8253112982
 H         3.0933510491        5.6604861610        2.8883807815
 H         0.2624853646        3.2018975173        4.3005648957
 H         0.9461766852        3.7277847629        5.8310864259
 H         1.0373271260        2.0473051275        5.4288266808
 H         3.3960075726        4.3427156486        6.2000687548
 H         4.1596345782        4.5252192654        4.6916562782
 H         2.6428433419        5.5236833550        4.9546307204
 H         1.2611329200        4.6910042902        0.6372248828
 H         1.4268994183        6.3349303672        0.6532121887
 H         3.4143297178        1.6425154625       -0.6535780259
 H         3.8295596080        1.8325456628       -2.3878190066
 H         4.7736961256        2.6033083436       -1.1314196381
 H         2.1964643107        6.8588438913       -1.6290736426
 H         1.1544030736        5.5565649571       -2.0454015837
 H         2.4415947532        5.8998890423       -3.0297988498
 H         5.5639552233        4.6980258398       -1.7246865139
 H         4.5362973810        4.5905446182       -3.0895531386
 H         4.8052260090        6.1331136598       -2.4041355205
 Na        1.3561786264        0.8174956329        2.2605030648
