155

 C        -9.9268412353        2.7086362639       -2.6904551975
 C        -8.8959420547        1.5514859644       -2.7782326150
 C        -9.3069677822        0.0316847918       -3.0301254334
 C        -8.1560506817       -0.8241531665       -3.5463687328
 C        -7.1772102902       -1.3757301976       -2.4578068296
 C        -9.8943824912       -0.4967784413       -1.6984995306
 C       -10.3414139058        0.0146300784       -4.2010520857
 O        -7.6770132334        1.7249711412       -2.5628623867
 O        -8.1362525008       -1.1962206691       -4.7080351237
 C        -6.2391053570       -2.3478037548       -3.2563740549
 C        -5.3653228556       -3.2389698204       -2.3168855480
 C        -4.8754833377       -4.7750092984       -2.4875079571
 C        -3.9556264087       -4.7283822360       -3.7754550919
 C        -2.5841158297       -4.1007204673       -3.6105806486
 O        -4.7810605646       -2.5693578154       -1.4406113413
 O        -4.4751593532       -5.0077118876       -4.8085528024
 C        -4.1062543853       -5.1660916388       -1.3001996079
 C        -6.0943455889       -5.7116542521       -2.7422041658
 C        -1.8060669858       -3.8614861137       -4.9591719438
 C        -1.1168621996       -2.4575715915       -5.1322364836
 C         0.3342750710       -2.1632452583       -4.3919213857
 C         0.1110517180       -1.3209186467       -3.1561864811
 C         0.5108258948        0.2255910457       -3.0202223466
 C         0.9782114024       -3.5059210673       -3.9024065978
 C         1.2180426545       -1.4760549585       -5.4365104410
 O        -1.5964726848       -1.5972307555       -5.8532779053
 O        -0.3952203568       -1.8341583675       -2.1837097245
 C        -0.4284148690        1.0115446141       -2.1228302977
 C        -0.3311549453        0.4281729581       -0.6929879835
 C        -1.6331788786        0.3688555616        0.1632874344
 C        -1.3316450496       -0.3851722700        1.4485499778
 C        -1.4015183899       -2.0018948014        1.5599899933
 O         0.6735927529        0.1106657577       -0.1180983389
 O        -0.8517373287        0.3397521907        2.3419425139
 C        -2.1466932528        1.8740035845        0.3715809767
 C        -2.8378184314       -0.3501920365       -0.5451673550
 C        -0.9130649753       -2.5751988434        2.8971171734
 C         0.6873576188       -2.7344291697        2.9428894418
 C         1.5283295037       -4.1289379789        3.1762908938
 C         2.8915425026       -3.9069652195        2.4545714829
 C         3.9729545915       -2.9556820362        3.1530511956
 C         1.4726252176       -4.3315627095        4.7416228749
 C         0.7064757518       -5.1691817286        2.4637651620
 O         1.2788645374       -1.6972837573        2.9996689323
 O         3.0526588139       -4.2525736034        1.3031960083
 C         4.8026045063       -2.2491368003        2.1536182559
 C         5.8436242732       -1.2765800746        2.7417020708
 C         6.1534493090       -0.0092183258        1.8267767493
 C         4.8570479720        0.8834039404        2.0625153485
 C         4.8531218993        2.2600915253        2.6791568115
 O         6.3724691089       -1.4504708843        3.7987896920
 O         3.8209331641        0.5068676795        1.4792926060
 C         7.4685109408        0.5923618793        2.3533823160
 C         6.0321996198       -0.3855136442        0.2478331399
 C         4.5919526188        2.2159341996        4.1923479881
 C         3.1824658939        2.0503579409        4.5351323084
 C         2.2415059523        3.3071634209        4.6553896036
 C         2.0550802146        3.8946450736        3.2088072159
 C         2.3659996744        5.3492033012        2.9231878812
 C         0.8102834359        2.9218886836        5.1846344335
 C         2.8936611387        4.3272598028        5.6027342542
 O         2.7195812490        0.9130414036        4.5650397254
 O         1.6240954553        3.1246510429        2.3546227442
 C         2.3022179351        5.7220390822        1.4334549864
 C         3.3144167809        4.9608627556        0.5652186431
 C         3.0876480717        4.9374663728       -0.9403030460
 C         2.5806606190        3.5311466705       -1.3246634402
 C         3.4689279686        2.2259117053       -1.1107825811
 O         4.3326580302        4.4528942688        1.0605558868
 O         1.5398630387        3.3090831646       -1.9208635816
 C         2.2683927139        5.9960581661       -1.6237511334
 C         4.4241340492        5.0389706930       -1.6485128467
 H       -10.5361220585        2.4891375157       -1.9295611028
 H        -9.3880705739        3.5589847761       -2.5026246737
 H       -10.5011311386        2.7883794479       -3.6580957743
 H        -6.6662349819       -0.4442553153       -2.1193037555
 H        -7.6381047327       -1.7653529766       -1.5172886985
 H       -10.5889055105        0.2539553771       -1.2831679447
 H        -9.0629696566       -0.6107118070       -0.9050924508
 H       -10.5377875175       -1.4582812089       -1.7665413316
 H        -9.8608907193        0.3661389671       -5.0990361696
 H       -10.7334998992       -0.8954607081       -4.4914312270
 H       -11.1180389405        0.7009086280       -3.9633035881
 H        -6.8703345822       -2.9843905275       -3.9119629417
 H        -5.7080314005       -1.8304202608       -3.9693960696
 H        -2.8773337602       -3.1138163936       -3.2763151267
 H        -1.8933221112       -4.5877547683       -2.8906785345
 H        -3.6880049831       -6.2019078618       -1.4323628945
 H        -4.7936025989       -5.1558075029       -0.3993044008
 H        -3.2507975622       -4.5393019687       -1.1284535469
 H        -6.8105031022       -5.3162265069       -3.4667038942
 H        -5.8083418004       -6.6149852011       -3.1759368486
 H        -6.7192522665       -5.8913768045       -1.9685792838
 H        -2.5454807420       -4.0583898016       -5.8037045262
 H        -0.9349991947       -4.5242951418       -5.1623649246
 H         1.4700820265        0.2746754280       -2.5454906019
 H         0.6099247746        0.5792169859       -4.1017985452
 H         1.0144082523       -4.2297466440       -4.7313869377
 H         0.3503148226       -3.8440155483       -3.0816219682
 H         2.0461900567       -3.4123780873       -3.5911916008
 H         2.2522987671       -1.4693924958       -5.2780919161
 H         1.0390888598       -1.9751586947       -6.4332373742
 H         0.9057105760       -0.5031444181       -5.6004678599
 H        -0.0035446185        2.0359164684       -2.0899309031
 H        -1.4734080107        0.9823041404       -2.4607415422
 H        -2.4569632665       -2.3138818320        1.3834114565
 H        -0.8289002994       -2.3516366331        0.6362425966
 H        -1.2591039636        2.5676707755        0.4837155469
 H        -2.5640663587        1.8373344400        1.3184326584
 H        -2.7864307098        2.1967692805       -0.4512619979
 H        -3.6510264318       -0.5826898813        0.1013652510
 H        -3.1270186887        0.3685733693       -1.3017082567
 H        -2.5856416321       -1.1698416470       -1.1525568645
 H        -1.4105479524       -3.5545752416        2.9483666145
 H        -1.2125806569       -2.0052767390        3.7736880295
 H         3.3687993938       -2.2034852301        3.7579771810
 H         4.6478724421       -3.3944533197        3.8080658339
 H         0.4435217493       -4.7718836998        4.8470962960
 H         1.5180808754       -3.3974598665        5.3206859074
 H         2.2621448603       -5.0759389733        5.0695241205
 H        -0.2113353192       -5.2321326073        2.9717367046
 H         0.4886368633       -4.8324180823        1.4635255245
 H         1.2130786775       -6.1518092852        2.5028142054
 H         5.4587891289       -2.9269756412        1.5468857428
 H         4.1694819397       -1.5987826396        1.6004898406
 H         5.7906199546        2.7582922537        2.4314768513
 H         4.0519750585        2.9014083502        2.1648617094
 H         7.4415785920        0.8526699267        3.4257722951
 H         7.8540582220        1.4248795903        1.8277684288
 H         8.3005741260       -0.1347961438        2.2394413851
 H         5.0308376413       -0.6966417491        0.0188626358
 H         6.3961335836        0.4590100373       -0.4098266017
 H         6.6808832859       -1.1860230696       -0.0416019373
 H         5.1707091209        2.9929252037        4.6617641408
 H         5.1282258260        1.2968298626        4.5325397196
 H         1.7261930471        5.8546390105        3.7053690474
 H         3.4030370989        5.6865721701        3.1343084217
 H         0.6545094233        3.3308249959        6.1809206341
 H         0.8178154185        1.8789902282        5.2137212978
 H         0.0502518468        3.2145520730        4.3863952802
 H         3.1993071230        3.8522091908        6.5662595264
 H         3.8385158162        4.6044592796        5.2069016121
 H         2.2791438095        5.1609420655        5.5686870158
 H         1.3341711984        5.3900964109        1.0157956565
 H         2.3604096686        6.7908490296        1.2169883300
 H         3.0388137880        1.4536550567       -1.6912908522
 H         4.5465368745        2.4056933993       -1.3649029955
 H         3.4630592362        1.7412713207       -0.1271809701
 H         2.7138617483        6.9432774314       -1.6572160451
 H         1.3277239108        6.0935469685       -1.1890245799
 H         2.0725195081        5.7626115967       -2.6135172816
 H         5.0763364686        4.2368188661       -1.3032057290
 H         4.3626245496        4.8516695130       -2.7113128385
 H         4.9971524353        5.9079333884       -1.5553760504
 Na        1.5258687734        0.6622811606        2.1565111331
