155

 C       -10.1031311982        2.2451902132       -2.7880335688
 C        -8.9917184825        1.2576775933       -2.8566267963
 C        -9.4057527635       -0.3179159727       -2.9564124182
 C        -8.1338020278       -0.9586556153       -3.7319096657
 C        -6.8461849361       -1.1897939990       -2.8733535063
 C        -9.7456664392       -0.7476427181       -1.4603754903
 C       -10.6731723381       -0.5986751380       -3.8136675427
 O        -7.7967812114        1.6279407697       -2.9275838086
 O        -8.0834443234       -1.0542126657       -4.9271527674
 C        -6.0654969099       -2.3908874231       -3.5497256016
 C        -5.1325086807       -3.1818162100       -2.4975807459
 C        -4.7053271348       -4.6969044525       -2.7602435503
 C        -3.7872969419       -4.6921503060       -4.1320500837
 C        -2.5014642744       -3.8411465971       -4.0572614353
 O        -4.8691203697       -2.7086244827       -1.3983156323
 O        -4.1888618002       -5.2235989102       -5.1010031009
 C        -3.8552664791       -5.1071691000       -1.5628033192
 C        -5.9847366507       -5.5001340543       -3.0221555720
 C        -1.8515425051       -3.6441889432       -5.3434600643
 C        -0.8759667740       -2.3960798188       -5.2522147644
 C         0.5685699178       -2.3726304958       -4.3406382149
 C         0.0608305730       -1.4026459752       -3.2050438083
 C         0.1658248814        0.1530510789       -3.3759329700
 C         0.9944382997       -3.8191872324       -3.9660587365
 C         1.6636871297       -1.6620720878       -5.1870064935
 O        -1.0970168576       -1.3278746519       -5.7848808289
 O        -0.5052615715       -1.8566966437       -2.2349187660
 C        -0.4260385045        0.8800442942       -2.1684336303
 C        -0.2902052377        0.3985437784       -0.7401620298
 C        -1.6765229917        0.3067257399        0.1117978088
 C        -1.3004459588       -0.4462714318        1.4316571798
 C        -1.3645111936       -1.9568483002        1.4651137077
 O         0.7472959732        0.2894282591       -0.0947985295
 O        -1.0954076096        0.2203785654        2.3937343482
 C        -2.0620679504        1.8532060481        0.5068200230
 C        -2.8868283905       -0.4964820667       -0.5870120961
 C        -0.6783993900       -2.5969347459        2.7295232795
 C         0.7954692657       -2.7597814859        2.6656427692
 C         1.5861365296       -4.2278131471        2.7981693310
 C         3.0431932724       -3.8422906244        2.3520869329
 C         3.9671345073       -2.9527598572        3.2111437621
 C         1.5311283714       -4.5179202853        4.3490137194
 C         1.1228429413       -5.4224158853        1.9190233488
 O         1.5276788024       -1.7450883476        2.5797508018
 O         3.5148203629       -4.3005132662        1.3345017782
 C         4.9008296400       -2.2450872469        2.1596785322
 C         5.7917875256       -1.0356194292        2.7944609348
 C         6.0726130794        0.4436003472        1.9463960088
 C         4.8998319668        1.3010633032        2.4975008634
 C         5.1597525360        2.2724483884        3.7434832008
 O         6.3476672531       -1.1302317366        3.8637101530
 O         3.7878810859        1.3044485489        2.0543255803
 C         7.5659645120        0.8580924401        2.2208677039
 C         5.9054501147        0.5365630160        0.4282808359
 C         4.4053699827        1.6204923576        4.9496505234
 C         2.9732993572        1.5472594657        4.6012744043
 C         2.0242493571        2.8056048613        4.7381690160
 C         1.8154235410        3.6020631348        3.3240849471
 C         2.3432794126        5.0268610863        3.1535882156
 C         0.6152453153        2.3964022823        5.1430624449
 C         2.7237342777        3.7462700184        5.8486719292
 O         2.5128529173        0.4783095415        4.2253084631
 O         1.2646729398        2.9564144755        2.4333674315
 C         2.1436811533        5.7710485990        1.7724250865
 C         3.2709447205        5.2253969808        0.7536299728
 C         2.9554574037        5.3937881901       -0.7466454160
 C         2.2982049382        3.9712541555       -1.2628531811
 C         2.8997216637        2.6143063592       -0.7908408143
 O         4.2030400990        4.5978622860        1.2142677016
 O         1.4855981538        4.1300052194       -2.1820795715
 C         2.1369770631        6.6139076736       -1.1576844715
 C         4.3577164871        5.3477903067       -1.3606266936
 H       -10.9659601749        1.8107215828       -2.3404229868
 H        -9.6666150454        3.1379992172       -2.3328324037
 H       -10.2202682566        2.5075449919       -3.9011018474
 H        -6.1961803375       -0.3250056655       -2.7925129988
 H        -7.1852910606       -1.5565003574       -1.9180416555
 H       -10.6163456341       -0.0803116471       -1.2048647472
 H        -9.0851950451       -0.5277605910       -0.5709401553
 H       -10.0922862395       -1.8534633980       -1.2573902927
 H       -10.4835320089       -0.7337621020       -4.8882893749
 H       -11.1269205026       -1.4403208589       -3.4357383100
 H       -11.4075064796        0.1059497548       -3.7948462399
 H        -6.8177361729       -3.0086211093       -3.9672063277
 H        -5.4734606884       -2.1167318037       -4.4925291139
 H        -2.7438436748       -2.9039787308       -3.4605160516
 H        -1.9179187011       -4.3677548208       -3.2812033483
 H        -3.5629052939       -6.1342329453       -1.6830676027
 H        -4.4576154341       -5.0523157641       -0.6542403939
 H        -2.9183497265       -4.3891647869       -1.5377230381
 H        -6.0791009363       -5.7539682516       -4.0898435017
 H        -6.1061443031       -6.4999965119       -2.5159959790
 H        -6.9195942971       -4.9757880679       -2.7460097340
 H        -2.5667646104       -3.5338834043       -6.1384458070
 H        -1.3004003484       -4.5822935947       -5.6422549913
 H         1.2479028065        0.3671849689       -3.5799138605
 H        -0.3785539101        0.4826189461       -4.2002021025
 H         0.9389002527       -4.3108353104       -4.9072296229
 H         0.2871590203       -4.2835596340       -3.1629168814
 H         2.0082135271       -3.8030241185       -3.6426197162
 H         2.5673896480       -1.9329374999       -4.8583212698
 H         1.6014621749       -1.8986517586       -6.2678008336
 H         1.6335727126       -0.6321776989       -5.1169778875
 H         0.0385851658        1.8362694159       -2.2514708660
 H        -1.4576191617        0.8725590503       -2.4062919250
 H        -2.3793767262       -2.2540425485        1.5569962702
 H        -1.2025042003       -2.3076842857        0.4962306568
 H        -1.2036615259        2.2709855922        0.8975495892
 H        -2.7888105158        1.7400366791        1.3156974157
 H        -2.6000712969        2.3895419659       -0.3432984380
 H        -3.6783160519       -0.3440488703        0.1147142569
 H        -3.2346359649       -0.0167767422       -1.4783176723
 H        -2.6711765506       -1.5928063622       -0.6307393285
 H        -1.0436542159       -3.6674462104        2.8348752681
 H        -0.9265184598       -1.8323756887        3.5192787252
 H         3.3823160735       -2.4154690717        3.9580960302
 H         4.5190071469       -3.7333798508        3.9233148087
 H         0.5156944600       -4.9339732865        4.5798293322
 H         1.6931231839       -3.5869735955        4.8014196038
 H         2.2916423231       -5.2182897676        4.8001093677
 H         0.0923065165       -5.4608053974        2.1412611474
 H         1.3432166269       -5.2203657717        0.8698201639
 H         1.7073331833       -6.2762435433        2.1977080643
 H         5.5135455950       -3.0446773588        1.8651117931
 H         4.2936912003       -1.8203575318        1.3238721722
 H         6.2248999857        2.5566653425        3.8805316666
 H         4.5967726271        3.1657954954        3.4704261527
 H         7.8560454627        0.8889241897        3.2692956096
 H         7.8687022870        1.8716765625        1.8673848603
 H         8.1992288511        0.2466450171        1.6714390282
 H         4.8502190267        0.4314611838        0.1512156830
 H         6.2014729518        1.5123933640        0.0925373099
 H         6.3256293706       -0.3868362193       -0.0364303048
 H         4.6062477642        2.2017721440        5.8413706850
 H         4.7280321290        0.6202344905        5.0668037339
 H         2.1277827090        5.7739988999        3.9053859298
 H         3.4564436485        5.0112604286        3.4151785086
 H         0.5417325783        1.5164772524        5.7453694268
 H         0.0768927141        2.2937189935        4.2021829769
 H         0.3196665519        3.2849540225        5.6287618807
 H         2.5720659033        3.2209170786        6.7412572819
 H         3.7126053998        3.9950605709        5.4985595769
 H         2.0639217433        4.6632593496        6.1378845785
 H         1.1700356576        5.5868695697        1.2921830260
 H         2.2516047741        6.8230045438        2.1185315879
 H         3.4502920885        2.1361953867       -1.6339284286
 H         3.6493500280        2.7073903661        0.0142368485
 H         2.1437454195        1.9544828497       -0.5028092513
 H         2.0707863353        7.4524978241       -0.3666191922
 H         1.1460775704        6.2186416460       -1.4702525732
 H         2.5149357294        6.9942226434       -2.0412806065
 H         4.8432040188        4.3801502539       -1.3646835208
 H         4.3524654024        5.6359115335       -2.3500238254
 H         5.1641133180        5.9804674830       -0.9185749487
 Na        1.2506456156        0.5292888438        2.4023715512
