155

 C       -10.2399188285        2.1083186754       -3.0599656492
 C        -9.0622789557        1.0802958185       -2.9612502818
 C        -9.3617522799       -0.4579376580       -3.0284459120
 C        -8.2350051579       -1.2938342320       -3.7652648736
 C        -6.8719119558       -1.3308735527       -3.1694173223
 C        -9.5855603388       -0.8995797411       -1.4845348994
 C       -10.6521123189       -0.6759217686       -3.8319200674
 O        -7.9306258767        1.4561170147       -2.7500005810
 O        -8.4609749659       -1.8500424556       -4.8177840558
 C        -6.0777502653       -2.5411804555       -3.6706471751
 C        -5.2467644042       -3.3374517481       -2.6040100260
 C        -4.6590493857       -4.7002529611       -3.0516181158
 C        -3.6234927286       -4.3653456767       -4.2733321580
 C        -2.6227386524       -3.2099693712       -4.0239867861
 O        -5.0480030227       -2.7807061501       -1.5675637636
 O        -3.7852750557       -4.9045897104       -5.3195717405
 C        -3.9379455586       -5.3597877618       -1.8886972150
 C        -5.6756882079       -5.7306551657       -3.3912554618
 C        -1.6422407690       -3.1601007239       -5.2128470611
 C        -0.4373457412       -2.0935755455       -5.1318202447
 C         0.7819542564       -2.4413032115       -4.1739632042
 C         0.2366021799       -1.6258956345       -2.9402996665
 C         0.3356508683       -0.1247993898       -3.1174482058
 C         0.9282663081       -3.9995229501       -3.8961437697
 C         2.0227945918       -1.9828475657       -4.8381971026
 O        -0.4727756566       -1.0158946803       -5.6924993296
 O        -0.2607159764       -2.1399298152       -1.9116031783
 C        -0.5899662737        0.7686672628       -2.2885592258
 C        -0.4606822350        0.5490217644       -0.7372704000
 C        -1.6938070771        0.3339250652        0.2171495893
 C        -1.2558204562       -0.5511182459        1.4326051350
 C        -1.1086794884       -2.0466144751        1.2969443440
 O         0.5927429534        0.7832058687       -0.1666046113
 O        -0.9401076311       -0.0385995964        2.5275825298
 C        -2.0671737928        1.7935664526        0.7191522961
 C        -2.8050178412       -0.1857841683       -0.6492976413
 C        -0.2717576405       -2.6062103135        2.3348024904
 C         1.2724410287       -2.7084858965        1.9767446131
 C         1.9719693986       -4.0330064266        2.4715585089
 C         3.5147566793       -3.9604739154        2.1764778924
 C         4.3738717741       -2.8415368652        2.8307271235
 C         1.5856144972       -4.2545939840        3.9087905596
 C         1.1512361020       -5.1162277805        1.6773701398
 O         1.8329620223       -1.9525887594        1.2093370820
 O         3.9033108048       -4.7859282893        1.3720110015
 C         4.7402226011       -1.7064567577        1.8790105879
 C         5.5304170923       -0.6371172593        2.6783338400
 C         5.9256415534        0.6858514798        2.0606798153
 C         4.9065704300        1.6317210236        2.7683305192
 C         5.0319459019        1.9628021176        4.2957868459
 O         5.8423211981       -0.8619152481        3.8367043300
 O         3.8204753023        1.8085654728        2.1875782417
 C         7.3387851579        0.8916461869        2.5546525450
 C         5.8821497192        0.6333549879        0.5422446727
 C         4.0025490897        1.1709431744        5.1708834640
 C         2.5258374338        1.3512346139        4.6956593312
 C         1.5980858322        2.5192480953        5.0102076553
 C         1.6137750807        3.2482666815        3.5805128481
 C         2.0223077473        4.7331630024        3.3120747693
 C         0.1543680684        2.0793131115        5.2890534399
 C         1.9982792604        3.5014526792        6.1500137833
 O         2.0876235867        0.3887312468        4.0840305154
 O         1.2320940141        2.6573927566        2.6194951297
 C         1.7382376273        5.2682060448        1.8957181078
 C         3.0667526545        5.3104173105        1.1082322486
 C         2.9921776471        5.5900223852       -0.3975034141
 C         2.1367103895        4.3242970782       -0.9825360771
 C         3.0297428400        3.1939038327       -1.3664716743
 O         4.0917690964        5.0164416050        1.6552926277
 O         0.9163162857        4.3681491332       -1.1483942429
 C         2.2047029493        7.0021361566       -0.6631946360
 C         4.3872896242        5.7297721021       -0.9055588087
 H       -11.1203444797        1.8398747050       -2.3589701451
 H        -9.6650102701        3.0106398121       -2.6473878105
 H       -10.5423232027        2.1785727705       -4.0849801629
 H        -6.4255246628       -0.4257392013       -3.5671712887
 H        -6.8684935824       -1.2057906883       -2.1033598265
 H       -10.3090187523       -0.3180793694       -0.8388852184
 H        -8.6188092940       -0.8471166446       -0.9946196298
 H        -9.8751341690       -1.9214987859       -1.2845783045
 H       -10.5333514410       -0.3204039859       -4.9516081809
 H       -10.9852617203       -1.7457338797       -3.9432052632
 H       -11.4323428033       -0.1382613182       -3.3566496797
 H        -6.8028588895       -3.2504592794       -4.2189814535
 H        -5.4019832252       -2.0573558226       -4.3549246219
 H        -3.1966758074       -2.2677416463       -3.9900648092
 H        -2.1971667676       -3.2537537857       -3.0153842943
 H        -3.4853658869       -6.3068318660       -2.2069804884
 H        -4.6733781945       -5.4487151977       -1.0983832669
 H        -3.2548704819       -4.6346913991       -1.4449072266
 H        -6.6804518349       -5.3497886454       -3.5332882758
 H        -5.4370824350       -6.2001554087       -4.4192654250
 H        -5.6125212192       -6.6889883513       -2.7309312452
 H        -2.0989105207       -2.8141267077       -6.1568796345
 H        -1.2468068370       -4.1124267878       -5.3898416852
 H         1.3338305839        0.0658097218       -2.8772183253
 H         0.2113116849        0.0327925357       -4.2055560835
 H         0.9581703984       -4.5139592745       -4.8283678044
 H         0.0740843347       -4.3693558599       -3.3172706850
 H         1.8604456392       -4.0631708163       -3.3770270458
 H         2.8570768670       -2.2548575419       -4.2078401516
 H         2.2081407748       -2.4860964296       -5.7700380889
 H         1.9799920819       -0.9148252605       -5.0496089535
 H        -0.4378085615        1.8368515640       -2.4482027650
 H        -1.5896538470        0.6746039357       -2.7046444203
 H        -2.0838621075       -2.5460847796        1.3879104270
 H        -0.6806799297       -2.2619737690        0.3175942770
 H        -1.3409043473        2.0866520835        1.4608188916
 H        -3.1419959297        1.7720722398        1.0377571120
 H        -1.9258211813        2.4446041360       -0.0899704758
 H        -3.6868917924       -0.4512699401        0.0207860871
 H        -3.1030974686        0.6026399185       -1.3774058266
 H        -2.3993386206       -1.0891451700       -1.2060878193
 H        -0.5784799875       -3.6119492633        2.6333449620
 H        -0.4286297093       -1.8789431897        3.1909366178
 H         3.8575633450       -2.4013127365        3.6533930951
 H         5.2697580812       -3.3272358672        3.1522501877
 H         0.5649657775       -4.4175403321        4.1471259936
 H         1.7077229285       -3.2988963728        4.4399178779
 H         2.1651617663       -4.9878384076        4.3922636634
 H         0.2992844800       -5.5822634118        2.2374557469
 H         0.9200723868       -4.6183917240        0.7705119759
 H         1.7966986462       -5.9372418119        1.5341124542
 H         5.3508771401       -1.9149661499        0.9393489701
 H         3.9421563363       -1.1192562605        1.4800880639
 H         6.0651952076        1.7848436716        4.5769726347
 H         4.8670916842        2.9971557702        4.3548444470
 H         7.3863447795        0.7401934345        3.5872733348
 H         7.9330145807        1.7564619584        2.3194258122
 H         7.8362005068       -0.0582801576        2.3338486673
 H         4.8373482227        0.4351356244        0.2134768534
 H         6.1872972910        1.5951784892        0.1441091715
 H         6.5702300534       -0.1432717047        0.1258413927
 H         4.0663186860        1.5665687145        6.1714438648
 H         4.3020878449        0.1194936219        5.1954593551
 H         1.5782149157        5.4080494921        4.0655085565
 H         3.0448620537        4.8996657580        3.5965373418
 H         0.3063919191        1.3372103355        6.0716362231
 H        -0.1343182695        1.5431148490        4.3573488682
 H        -0.4414135559        2.8172053199        5.6457959667
 H         1.8944684066        3.1221777798        7.1578571222
 H         3.0411326750        3.9483596339        6.0299063971
 H         1.3055824541        4.3640417885        5.9742934398
 H         0.9550380977        4.6900023939        1.3709412722
 H         1.6279248865        6.3463224534        1.8824092565
 H         3.4864859691        3.4825485470       -2.2935989485
 H         3.8155729544        3.0237392569       -0.7109780559
 H         2.5145024118        2.1968552702       -1.3497950614
 H         2.5654672706        7.8838048158        0.0581775801
 H         1.1238081208        6.7867772001       -0.3398901016
 H         2.2867901430        7.1766850374       -1.7310653514
 H         5.0420613832        4.9020916740       -0.7102961133
 H         4.4951382155        5.8319321070       -2.0075728302
 H         4.8453737917        6.6061524741       -0.4642276606
 Na        1.8125604851        0.4188046905        1.7289900666
