155

 C        -9.9953372314        2.1540728202       -3.1594554230
 C        -9.0083179248        0.9891665568       -2.9626092751
 C        -9.4905261518       -0.5373537021       -2.9801564108
 C        -8.4010633819       -1.3835309189       -3.7512796005
 C        -6.9426740657       -1.3336044489       -3.1735720240
 C        -9.6454714430       -1.0722314909       -1.5938900326
 C       -10.7416383544       -0.7508058549       -3.8216447430
 O        -7.8389732010        1.2057461621       -2.8250332092
 O        -8.6480140071       -2.1670253073       -4.6728204950
 C        -6.2692826007       -2.6864549981       -3.5735585492
 C        -5.3344528410       -3.3145814107       -2.6653389627
 C        -4.6073620600       -4.5790191695       -3.1491001040
 C        -3.5865885231       -4.2330338321       -4.2608565905
 C        -2.4382272958       -3.1399260548       -4.0525541374
 O        -5.0257834962       -2.8046545164       -1.5802506060
 O        -3.6467226219       -4.7952029383       -5.3715427698
 C        -3.8072446581       -5.1804862089       -1.9207659306
 C        -5.6571328071       -5.5129321973       -3.8215249013
 C        -1.5576779995       -3.1244144905       -5.3070784271
 C        -0.4011887606       -2.1708051055       -5.1884982814
 C         0.7695644013       -2.4221324983       -4.0657421609
 C         0.3526927851       -1.6014671342       -2.8526693205
 C         0.5757065196       -0.0289242335       -2.9527811588
 C         0.8422833370       -3.9303188547       -3.6216389735
 C         2.1594228491       -1.9274335029       -4.6342171003
 O        -0.4006775564       -1.0977967253       -5.7428314032
 O        -0.2383763109       -2.1446738389       -1.9773703764
 C        -0.5691100824        0.7795191026       -2.2937936744
 C        -0.3731839730        0.6796868529       -0.7911176676
 C        -1.6614300973        0.4916914919        0.2310959813
 C        -1.2062095888       -0.3916679049        1.3435147828
 C        -1.1878979267       -1.8971353021        1.0669360196
 O         0.7500873223        0.7226116795       -0.3284094401
 O        -0.7055637603        0.1921450151        2.2695048581
 C        -2.0670316619        1.9102036183        0.6969055026
 C        -2.8905343669       -0.2136092764       -0.4407809611
 C        -0.3061063475       -2.6978735439        2.2087921949
 C         1.1887715786       -2.9049597981        1.8391328079
 C         2.0281657736       -4.1485754526        2.3360805983
 C         3.5408706687       -4.0246728137        2.0473896849
 C         4.4540776985       -2.9936508536        2.9245137264
 C         1.9317054187       -4.3774206361        3.7958748954
 C         1.5574000799       -5.3883831469        1.4876294387
 O         1.7657032598       -2.0884220168        1.1345127962
 O         4.0978756646       -4.7203452314        1.2441177969
 C         5.0490697087       -2.0069545448        1.9559507318
 C         5.7389136011       -0.8685229528        2.7657905248
 C         5.9731309518        0.6516182001        2.1789679666
 C         4.8001863083        1.5573768150        2.7638172709
 C         4.8369759347        1.9569196539        4.2534891487
 O         5.7510097957       -1.0097508966        3.9644381740
 O         3.8650347238        1.8894441372        2.1054061308
 C         7.3664273798        1.1617064269        2.5887409498
 C         5.9563515663        0.8009134985        0.6246839592
 C         3.8128159388        1.3377199766        5.1440787192
 C         2.4430675759        1.2378917892        4.6160321658
 C         1.4286298271        2.4064766291        4.8965524629
 C         1.3132072044        3.3557562839        3.5651515378
 C         1.7158800181        4.7521617111        3.5268963287
 C         0.1130264204        1.7449940510        5.2812271191
 C         1.9454178733        3.2910920164        6.0527997639
 O         2.0228773788        0.1866505698        4.1612468138
 O         0.7428968667        2.8268165176        2.6123716945
 C         1.6616297219        5.4405150983        2.1251976460
 C         3.0403949592        5.3595883932        1.2640754562
 C         2.9500960110        5.6756186809       -0.2635811859
 C         2.1986486800        4.4225886273       -0.8636815755
 C         2.9262647736        3.3663850376       -1.7098142010
 O         4.0886733055        5.2294727625        1.8585621666
 O         1.0325362918        4.3680876907       -0.6956929789
 C         2.1112944512        6.9171945423       -0.4637303726
 C         4.3915457905        5.9005561051       -0.8402577208
 H       -10.8664308387        1.9277989246       -2.6101772349
 H        -9.5722908117        3.0122700204       -2.7555126309
 H       -10.1462153525        2.1452514443       -4.2115401286
 H        -6.4417072663       -0.4261849258       -3.5915249392
 H        -6.9284940444       -1.1362270489       -2.0657496884
 H       -10.5517016349       -0.7395016487       -1.2029916506
 H        -8.8960202947       -0.9140064709       -0.8663356511
 H        -9.7395128998       -2.1171323709       -1.5781371981
 H       -10.4521547677       -0.8188046569       -4.8095805202
 H       -11.1612030129       -1.7477383220       -3.6480579405
 H       -11.6222354470       -0.0240657116       -3.6646238622
 H        -7.0238722879       -3.3566329733       -3.7808434974
 H        -5.6142578456       -2.5183587232       -4.4524063186
 H        -2.9792277248       -2.1760213477       -4.1029999562
 H        -1.9515179013       -3.2369267204       -3.0769790523
 H        -3.5544930250       -6.1700599406       -2.2872352510
 H        -4.4385611297       -5.2269003512       -1.0225520566
 H        -2.9404291984       -4.5923667619       -1.7224736152
 H        -6.6390680306       -5.0248237930       -3.9146828838
 H        -5.4367758346       -5.7023659601       -4.8384826918
 H        -5.7498242812       -6.4586046208       -3.3704227616
 H        -2.1021299604       -2.7849713737       -6.1703837869
 H        -1.1140050639       -4.1347237123       -5.5520763371
 H         1.5544859330        0.2539799518       -2.4113447582
 H         0.6732768814        0.2332970147       -3.9983934274
 H         1.1867194210       -4.5172024177       -4.5149380715
 H        -0.1003939944       -4.2467762453       -3.2785945338
 H         1.6248743822       -3.9746952250       -2.8372753964
 H         3.0288971636       -2.5405554758       -4.1908234158
 H         2.2047946999       -2.1362510781       -5.7019375951
 H         2.3217258453       -0.8185429075       -4.5373668104
 H        -0.5722195317        1.8187864259       -2.6990537348
 H        -1.5709096034        0.4690846963       -2.6591283737
 H        -2.2135084083       -2.3549393714        0.9351275903
 H        -0.6172970645       -1.9816097903        0.0880371508
 H        -1.1702461671        2.5372690315        1.0273544761
 H        -2.7164368850        1.6850898975        1.4872124001
 H        -2.5614756945        2.4557778783       -0.1349758210
 H        -3.4475712541       -0.6627520159        0.3694243520
 H        -3.4674751205        0.6210578593       -0.9214973113
 H        -2.6475773909       -0.9084038048       -1.2199572384
 H        -0.6220398917       -3.7158819427        2.4178483529
 H        -0.3870560144       -2.1802601707        3.1320694930
 H         3.7164491230       -2.4154573200        3.5669627340
 H         5.2796412517       -3.4217478325        3.4936423895
 H         1.0764724349       -5.0285075957        4.1058708201
 H         1.8373320687       -3.5012568532        4.4604664959
 H         2.8096094670       -4.9500951870        4.1650429430
 H         0.5265209563       -5.5176917480        1.6679520992
 H         1.8211981923       -5.1035806751        0.4429373071
 H         1.9860480257       -6.3486372336        1.8781188416
 H         5.7092909817       -2.4341266561        1.2622563388
 H         4.3437587024       -1.4471932392        1.2725400297
 H         5.8444199854        1.8043454700        4.6358571660
 H         4.6694264401        3.0900705915        4.2160527215
 H         7.5301191840        1.3136321503        3.7110447626
 H         7.3742561900        2.1762765879        2.1835098356
 H         8.2723526493        0.6376076922        2.2219385427
 H         5.0069993458        0.4335781803        0.3082534355
 H         6.1089164391        1.8351845772        0.2538067831
 H         6.7591669367        0.2518677183        0.2065502817
 H         3.9111131045        1.8880547426        6.1113223620
 H         4.1352583950        0.2977909779        5.3805817177
 H         1.0161701849        5.3332156815        4.1226265627
 H         2.6115283319        4.9712362114        4.1163740480
 H         0.1335651363        1.0709628542        6.1527014110
 H        -0.1453550611        1.2396352586        4.3794408061
 H        -0.5854646967        2.6892242051        5.3795706101
 H         2.2790700979        2.6700365342        6.9252301755
 H         2.8478322932        3.8064891477        5.8403168278
 H         1.2940962117        4.0672782940        6.3045466017
 H         0.9439697613        5.0696617709        1.4191116316
 H         1.5941773539        6.5059285471        2.3600434957
 H         3.7379434221        3.8213953493       -2.2970171511
 H         3.3310602614        2.5124066560       -1.0772667423
 H         2.2059149845        2.8238665042       -2.2949675321
 H         2.1781329325        7.5279005699        0.3273372672
 H         1.1297150092        6.6224074437       -0.5714050436
 H         2.5207238294        7.3715847221       -1.3789204751
 H         4.8843855801        4.9096188188       -0.9816180932
 H         4.3271823851        6.1894158259       -1.8861621909
 H         5.1218647734        6.5714129032       -0.4054718575
 Na        1.4892560664        0.6231752577        1.8206275613
