155

 C        -9.9364434767        2.0686850248       -3.2455256510
 C        -8.9944579094        0.8954923529       -3.0190939312
 C        -9.6493486837       -0.4735107876       -3.1024352759
 C        -8.5462867816       -1.5465524656       -3.7671091641
 C        -7.0589377190       -1.5116239378       -3.1787276164
 C        -9.7838815223       -0.9640666142       -1.6520379482
 C       -10.9904617340       -0.5695794460       -3.7865509806
 O        -7.7834092266        1.0224702388       -2.7207009031
 O        -8.9708450618       -2.3197089725       -4.5733188776
 C        -6.2497537076       -2.6436784204       -3.7799079971
 C        -5.2183135342       -3.3084520334       -2.7608941115
 C        -4.4844460378       -4.5857675260       -3.2568746968
 C        -3.4371864090       -4.1926853063       -4.4594014247
 C        -2.3728669085       -3.1330864001       -4.1156817031
 O        -4.9802096574       -2.7840539782       -1.7027720437
 O        -3.5200852969       -4.7317610958       -5.5215049271
 C        -3.6427352521       -5.2295957408       -2.0731710660
 C        -5.5428139754       -5.6726073039       -3.7197213802
 C        -1.4405233337       -3.1541536413       -5.3072961315
 C        -0.2523314239       -2.1372945585       -5.1077235956
 C         0.8184502409       -2.4405257654       -3.9568409414
 C         0.4306885361       -1.3948254500       -2.8270809986
 C         0.5893541638        0.1122724803       -3.0914069122
 C         0.9062312330       -3.9233115225       -3.5675562129
 C         2.2098250026       -2.1009968015       -4.6049786319
 O        -0.1378644074       -1.1285287889       -5.7968609398
 O        -0.2876260770       -1.8581693300       -1.8956505313
 C        -0.6076936603        0.8089798638       -2.3730441063
 C        -0.3892622333        0.7023484469       -0.8348130872
 C        -1.6114453377        0.4923147090        0.2202297855
 C        -1.0968466815       -0.4629752919        1.3867789527
 C        -1.0117178626       -1.9762276910        1.1044423058
 O         0.7197201607        0.8021495278       -0.3767084157
 O        -0.6854365104        0.0449639964        2.4250788600
 C        -1.9197377558        1.8915775813        0.6920472053
 C        -2.8192158530       -0.1076298963       -0.5054575005
 C        -0.2177051680       -2.8340197474        2.0532415966
 C         1.3491631476       -2.8871725707        1.7985850517
 C         2.1168744941       -4.2180724924        2.0518002884
 C         3.7363324091       -4.0009074988        1.7927990083
 C         4.2598290319       -2.8971491376        2.7008835747
 C         1.8413710137       -4.4206710488        3.6493821316
 C         1.6450841608       -5.5645248109        1.3628730415
 O         1.8558864774       -1.8394746799        1.4038674190
 O         4.3520127615       -4.6375836742        0.9610957320
 C         5.3366131243       -1.9752257107        2.0281530115
 C         5.7424815891       -0.7496267750        2.9428018097
 C         5.8883465063        0.6724478873        2.2653150689
 C         4.6852552793        1.4831823654        2.7320877261
 C         4.6450002918        2.1405255217        4.1176754852
 O         6.0011982928       -0.8490093793        4.1100503222
 O         3.6347169082        1.5319394622        2.0665614748
 C         7.2822506747        1.2239079816        2.8004527821
 C         5.8452134577        0.5081516704        0.7126748953
 C         3.8465906165        1.1932687777        5.0810681502
 C         2.4558252713        1.2254019241        4.6226797665
 C         1.4009994630        2.3957663396        4.7969197220
 C         1.0920951678        3.2122357096        3.5165664670
 C         1.5881636189        4.6787327658        3.5725186441
 C        -0.0701171289        1.8076475004        5.1138853822
 C         1.8070438016        3.2502630343        6.0629261992
 O         2.1424205714        0.2222929524        3.9888352279
 O         0.4697035091        2.8638087667        2.5081569226
 C         1.5810286884        5.4665643622        2.2780721974
 C         2.9620233807        5.4665159734        1.5554605870
 C         2.8992720415        5.7450076250        0.0699159525
 C         2.1882931242        4.5234098501       -0.6808227679
 C         2.8165736208        3.6898029905       -1.8582088197
 O         4.0126180207        5.2355032916        2.1004471446
 O         1.0145827419        4.1965608391       -0.3868136283
 C         2.0263095794        6.9687893437       -0.3354357960
 C         4.3554148518        5.9033055260       -0.5237386823
 H       -10.6374080176        1.9687637732       -2.4141593755
 H        -9.4469835300        3.0596939877       -3.1928272459
 H       -10.3480570179        1.8058803551       -4.3288902234
 H        -6.6548908254       -0.5289159779       -3.3560196528
 H        -7.0913780936       -1.5375409941       -2.1118193260
 H       -10.6873672092       -0.6593492277       -1.0590146620
 H        -8.8961853911       -0.7126181918       -1.0153659194
 H        -9.7290102320       -2.1155447714       -1.5601305012
 H       -11.1213024877       -0.0036007466       -4.7218870575
 H       -11.0895332693       -1.6207255643       -3.9821413828
 H       -11.7473212731       -0.2915670981       -3.0955095278
 H        -6.9648349798       -3.4907461589       -4.0899965982
 H        -5.7251698723       -2.2767947308       -4.6495785580
 H        -2.9220572927       -2.1767140939       -3.9658200128
 H        -1.9306064024       -3.5500052545       -3.1973371978
 H        -3.0041556571       -6.0290056870       -2.4315341794
 H        -4.3978473678       -5.6522145419       -1.4246455431
 H        -3.0285624508       -4.3769477811       -1.6163988114
 H        -6.4870901574       -5.6237445436       -3.1743400672
 H        -5.7689994243       -5.6603401548       -4.8564091218
 H        -5.0793338879       -6.6443944099       -3.4193975124
 H        -2.0304491200       -2.8656745151       -6.2152531695
 H        -1.0895788403       -4.1567379428       -5.4797627882
 H         1.5027188811        0.4733139123       -2.6686195651
 H         0.5884881518        0.2897836146       -4.1960895105
 H         1.1643778003       -4.4244228984       -4.4778539272
 H        -0.1569717984       -4.2071868843       -3.2012776850
 H         1.6470870336       -4.1403570557       -2.8036358253
 H         2.9884189772       -2.1858364238       -3.9607214984
 H         2.3744511008       -2.7735666588       -5.4673843166
 H         2.1916029538       -1.1272133363       -4.9768639193
 H        -0.6705675329        1.8009124683       -2.7704778095
 H        -1.5484852261        0.4096670151       -2.6791256417
 H        -1.9944925442       -2.3494408561        1.1877351199
 H        -0.6307647019       -2.1719866875        0.1506765049
 H        -1.0285104975        2.3883291622        0.8720804881
 H        -2.5443196949        1.8499473958        1.6440827425
 H        -2.3707784685        2.3932814202       -0.1631138654
 H        -3.5921282795       -0.0097005519        0.1909120881
 H        -2.9954196045        0.3064498946       -1.4265275255
 H        -2.7008601389       -1.1613200762       -0.7242169324
 H        -0.7023795389       -3.8255419533        2.1835628106
 H        -0.2983000586       -2.4237086836        3.1248810632
 H         3.4069732611       -2.4066094125        3.0863271242
 H         4.7346164529       -3.5173115129        3.5273395601
 H         0.7605504530       -4.5539906530        3.8524669989
 H         2.1581401395       -3.5667710587        4.2486592721
 H         2.2786796815       -5.3149716487        4.1613543366
 H         0.5255445861       -5.5493895519        1.2829783373
 H         2.1674546708       -5.8758757376        0.4821196939
 H         1.8066658214       -6.2380526454        2.1611751756
 H         6.2495140967       -2.5590091088        1.6933698295
 H         5.0050003911       -1.5653816087        1.0971221418
 H         5.6927274134        2.2966900047        4.4650092362
 H         4.1299752212        3.0799810734        4.1114964334
 H         7.5555236291        0.6748590568        3.6756673217
 H         7.3942460163        2.3008220965        3.0611757590
 H         8.0175107141        1.0675367407        2.0329682209
 H         4.8435775332        0.2118937042        0.3931034410
 H         6.0757668819        1.4499243788        0.3137127881
 H         6.7031246601       -0.0800751565        0.3156377322
 H         4.1081995691        1.5460184167        6.0604640626
 H         4.1454050092        0.1527963130        5.0484814480
 H         0.9867013217        5.3794191311        4.2247851066
 H         2.5914333385        4.7513237178        4.0547538496
 H         0.0702617826        1.3763937461        6.0847061915
 H        -0.3694118889        1.0387142207        4.3911528927
 H        -0.7406575743        2.5933949758        5.0838811209
 H         1.8071903957        2.6785586362        6.9409326736
 H         2.7926182545        3.7568795321        6.1679853095
 H         1.0880744073        4.1412160443        6.1220502071
 H         0.9712114940        5.0672627398        1.4476113088
 H         1.3773856399        6.5029063016        2.5664102628
 H         3.7132356445        4.1975725664       -2.2785806402
 H         2.9936965419        2.6765454700       -1.5455687358
 H         2.0658183847        3.5981665781       -2.6767589063
 H         2.4706217445        7.9078282849        0.0983409575
 H         1.0401444823        6.6926973481        0.1355395146
 H         1.9429428346        7.0432393610       -1.3995661413
 H         5.1344820090        5.2688138957       -0.2030832889
 H         4.4154724537        6.0040822217       -1.5970242103
 H         4.6697210196        6.9071876663       -0.1981470135
 Na        1.4594102974        0.7531022577        1.9472904021
