155

 C        -8.9359365780        0.8630102109       -4.7218056408
 C        -8.8263774407        0.2426293069       -3.2332964667
 C        -9.5567046199       -1.0289400874       -2.9387621812
 C        -8.6179832654       -2.2087715562       -3.4643385065
 C        -7.2115628068       -2.2552963660       -2.7518353059
 C        -9.7761543425       -1.1750903508       -1.4092685064
 C       -10.9913879221       -1.0330561619       -3.6763303750
 O        -8.1089177496        0.7251589880       -2.4148293835
 O        -8.8690573650       -2.9995546646       -4.3482173885
 C        -6.3931795722       -3.5092378411       -3.2017055094
 C        -4.9896920782       -3.1320977484       -3.5793574563
 C        -4.1907040049       -4.3358470294       -4.2076059445
 C        -3.2947578546       -4.0264031178       -5.5027294859
 C        -2.2120137083       -2.9513877561       -5.3626030118
 O        -4.5104414119       -2.0237184901       -3.4854068770
 O        -3.3562079288       -4.6852002294       -6.4734602717
 C        -3.3413914512       -4.7692266519       -3.0021357562
 C        -5.0601179929       -5.5432798191       -4.7490481505
 C        -0.7414347775       -3.5306707869       -5.5650121907
 C         0.3234181725       -2.3241193826       -5.5685102714
 C         1.5191220703       -2.2541941212       -4.5461262758
 C         0.7862493788       -1.6401576278       -3.2542750140
 C         0.3944698946       -0.1569341349       -3.3423140182
 C         2.1970674901       -3.5737543230       -4.2273933574
 C         2.6448409543       -1.1835183931       -4.9604895089
 O         0.1038715002       -1.3473551926       -6.2930107937
 O         0.5488751851       -2.2742607312       -2.2769357428
 C        -0.7682423087        0.1805188442       -2.4247588442
 C        -0.4630091654        0.3361677406       -0.8540128043
 C        -1.6759743424        0.1123746238        0.1126038684
 C        -1.2139354050       -0.9487480661        1.2193774136
 C        -1.1147157727       -2.2923245880        0.6337403067
 O         0.6943288639        0.6200966351       -0.4548104895
 O        -1.0064295195       -0.6608314899        2.3913848900
 C        -1.9259376543        1.5127204252        0.6396295305
 C        -2.9851685633       -0.3823375396       -0.5359750946
 C        -0.2529575256       -3.2452114693        1.4583322918
 C         1.2486508075       -2.8421558458        1.5233387532
 C         2.3659987304       -3.9497756026        1.2793508895
 C         3.7958599648       -3.1461010990        1.5479157941
 C         4.1166584544       -2.5733053096        2.9359262554
 C         2.3318494952       -5.2840096762        1.9734651195
 C         2.1897775208       -4.0850979474       -0.3064606990
 O         1.6310631802       -1.7416527537        1.7965075336
 O         4.5383042412       -2.9964121781        0.6088797011
 C         5.7000503647       -2.2702839092        3.1383013933
 C         6.1421850573       -0.8324984912        3.4502485671
 C         6.1046273919        0.5148919893        2.6168313854
 C         4.6327307207        1.0166368670        2.6653467021
 C         4.2705017442        2.1994249871        3.6099688360
 O         6.6698658770       -0.7324209208        4.5714892177
 O         3.7363800260        0.5010535145        2.0188028752
 C         7.1326684433        1.5411813557        3.2177582114
 C         6.4598088589        0.2771590883        1.0638880658
 C         3.7837993402        1.8427646928        4.9876459705
 C         2.2543768108        1.3942312297        4.8953738848
 C         1.1240491866        2.1874755414        5.5225970301
 C         0.6148431019        3.2243203066        4.3317858260
 C         0.0618982375        4.6552179018        4.5211602699
 C         0.0004468777        1.2087868933        5.8406892181
 C         1.4758264014        2.9143700980        6.7864151470
 O         2.0076708811        0.4239023814        4.1613760464
 O         0.4976598230        2.6459464042        3.2524880793
 C         0.3410403617        5.5540035549        3.1889605095
 C         1.8368077199        5.6182890060        2.7458499410
 C         2.2783164324        6.4304921571        1.5234678225
 C         1.6950006248        5.7609509087        0.0621717764
 C         2.0526199712        6.3702541897       -1.2551479714
 O         2.6929173181        5.0863280798        3.4538832311
 O         0.8453296505        4.9152990855        0.2312785496
 C         1.5673142109        7.8584155142        1.5626190550
 C         3.8815630327        6.5216255866        1.4736074546
 H        -9.9764463944        1.1513935220       -4.8747569826
 H        -8.3531002680        1.6734209058       -4.8815665603
 H        -8.8716501437        0.0012501844       -5.3673758726
 H        -6.6348486566       -1.3758271751       -3.1419362481
 H        -7.3173929365       -2.1608761814       -1.6949413944
 H       -10.6523960917       -0.4363438238       -1.1754976895
 H        -8.8324764722       -0.9559485406       -0.8156102837
 H       -10.0833912673       -2.1922744467       -1.1502886522
 H       -10.8194980928       -1.1919555076       -4.8343053435
 H       -11.6776908653       -1.8284094819       -3.2445426598
 H       -11.4375244085       -0.0630486291       -3.3556672451
 H        -6.2690192098       -4.1845930136       -2.2947721628
 H        -6.9216301076       -4.0902263830       -3.9618662963
 H        -2.4143560481       -2.1784306441       -6.0914421435
 H        -2.3105048792       -2.4034532433       -4.4437604534
 H        -2.4564523798       -5.3764616256       -3.3104586290
 H        -3.9653906827       -5.5628317932       -2.5341245912
 H        -3.0483979950       -3.9690977965       -2.4066736351
 H        -5.4942999880       -6.0618260904       -3.8591161837
 H        -5.7771896877       -5.0212563070       -5.3489102011
 H        -4.3808448882       -6.2245292049       -5.3542081157
 H        -0.7642601086       -4.1888638496       -6.3977602279
 H        -0.6275972706       -4.2538613748       -4.7342908980
 H         1.2754822554        0.4479653524       -2.9919651637
 H         0.2513303482        0.1753136987       -4.3088902989
 H         2.0719966225       -4.2885324962       -5.0906966670
 H         1.8041384094       -4.0505973620       -3.3980388401
 H         3.2790119356       -3.5485681491       -4.0139293085
 H         3.0231898215       -0.6519804015       -4.1044891902
 H         3.4219085743       -1.6132152496       -5.5272076522
 H         2.2033410217       -0.4380578081       -5.5635475165
 H        -1.2818363298        1.1153659604       -2.7511656906
 H        -1.5193804635       -0.5677751460       -2.6787198727
 H        -2.1555974690       -2.7450184938        0.6760012876
 H        -0.8296113569       -2.2999634242       -0.4451775159
 H        -1.0099725018        1.8585291150        1.1891547736
 H        -2.7983052780        1.6562527333        1.2439024111
 H        -1.8425581686        2.2437442405       -0.1459969777
 H        -3.5811799983       -0.7745670237        0.2592597255
 H        -3.3879365496        0.3471091214       -1.2213564148
 H        -2.8916103964       -1.1841925110       -1.2395589255
 H        -0.2725707187       -4.2296897651        1.0217129685
 H        -0.6351507388       -3.1900069048        2.5038088711
 H         3.5007134129       -1.7165257390        3.2587554681
 H         3.9006387866       -3.3369617616        3.7039903930
 H         1.5504177411       -5.8304207141        1.4977227418
 H         2.2345350767       -5.3654270861        3.0692870757
 H         3.1087573596       -5.9338626124        1.7536554760
 H         1.2289543449       -4.4166056456       -0.5390092810
 H         2.3999595856       -3.0690633094       -0.6813455157
 H         2.7873877579       -4.9052548761       -0.7942499593
 H         6.0405154564       -2.7736729051        3.9795807202
 H         6.1083322895       -2.7830552570        2.2177207653
 H         5.0567722089        2.9040413318        3.5466224643
 H         3.4289583102        2.7080861168        3.2008422315
 H         6.9593476945        1.6687376701        4.2585638816
 H         6.9408417146        2.4232359179        2.7376855928
 H         8.1052652994        1.2546371757        2.8437820358
 H         6.1984239681       -0.7373981411        0.8253877383
 H         6.1569349531        1.0342052097        0.3202252316
 H         7.5217878877        0.3079669370        0.9403882715
 H         3.9121691721        2.7767481539        5.6071469433
 H         4.3278482566        1.1043461182        5.5069779659
 H        -0.9882624638        4.5009921498        4.7653406906
 H         0.5843772104        5.1375935593        5.3551730131
 H         0.3050250976        0.4287327820        6.4415097081
 H        -0.4521905782        0.8348755068        4.9128396446
 H        -0.8032776221        1.7880566819        6.2488639005
 H         1.9453899843        2.0869418094        7.4489988881
 H         2.3467149906        3.5293943030        6.7260052308
 H         0.7908637398        3.5011595806        7.3120615343
 H        -0.2797477931        5.1651234964        2.3802893403
 H        -0.1369733157        6.5279247138        3.3127602856
 H         1.5827781638        5.8984694207       -2.0551032822
 H         1.4933298983        7.3121900272       -1.2737566414
 H         3.1012581306        6.6444972977       -1.3619689849
 H         1.5989505674        8.3895593454        2.6391371075
 H         0.4663101787        7.8210409193        1.1915146044
 H         2.0920227130        8.5275591932        0.8785936505
 H         4.1987246081        5.5031841294        1.2493969513
 H         4.1599087557        7.2152193431        0.6726221916
 H         4.2481819124        6.8389149476        2.4134554239
 Na        1.3083179760        0.5323212490        1.7899307993
