155

 C        -8.6724934529        0.4441689192       -4.8652423426
 C        -8.7375001832        0.1699177756       -3.3150122088
 C        -9.3360605816       -1.1599563947       -2.9025926646
 C        -8.5949489936       -2.3941125945       -3.5167623694
 C        -7.0796293435       -2.4612315828       -3.1946107800
 C        -9.3734023957       -1.2162158308       -1.3337097025
 C       -10.8725467570       -1.2246263007       -3.4891906980
 O        -8.5001995943        1.0796512366       -2.6106634040
 O        -9.2300223015       -3.1570410058       -4.2141383172
 C        -6.2494015722       -3.6040499912       -3.9012319618
 C        -4.7108635060       -3.3630905917       -3.8545823467
 C        -3.8611536910       -4.5507835157       -4.4285862238
 C        -3.0166113480       -3.8799396551       -5.7154492024
 C        -2.0532015211       -2.7562564734       -5.6259381512
 O        -4.1196834021       -2.4540618517       -3.2477457062
 O        -3.1046721322       -4.4947930226       -6.7282940835
 C        -2.8831387292       -4.8874986025       -3.3158014859
 C        -4.6609909076       -5.8338497226       -4.9302909447
 C        -0.5586761542       -3.2585980302       -5.4839891204
 C         0.4002266035       -2.0144820513       -5.5700518331
 C         1.7057510382       -2.0691130749       -4.7220509135
 C         1.1534098499       -1.7123392441       -3.2700594527
 C         0.6370478949       -0.2557130312       -3.0174706980
 C         2.2896171875       -3.5091780526       -4.8078937791
 C         2.5962212285       -0.9971733903       -5.3586529191
 O         0.1242193381       -0.9978179006       -6.1754498870
 O         0.8933474138       -2.6272193882       -2.4523001252
 C        -0.5787398912       -0.1782730562       -2.0765394515
 C        -0.4301018807        0.1722518837       -0.6172287762
 C        -1.7028975755        0.0516450128        0.2741218263
 C        -1.1678090353       -1.0751597186        1.2825971449
 C        -1.0350152529       -2.5036667307        0.7414945441
 O         0.4836755306        0.8155551222       -0.1739819608
 O        -0.9397248618       -0.8289660875        2.4610046144
 C        -1.9660916945        1.2915486529        0.9860008949
 C        -2.9108698438       -0.4379385004       -0.5084916004
 C         0.0739383165       -3.3464254799        1.2723973822
 C         1.5791971102       -2.8144556938        0.9684815848
 C         2.6288349316       -3.9272229569        0.8763694815
 C         4.1223261772       -3.3057726380        1.1725169071
 C         4.0166750579       -2.3314680918        2.3420928196
 C         2.3769868488       -5.1093581618        1.9488329582
 C         2.4369765007       -4.5470029327       -0.5696581475
 O         1.8707839954       -1.6930129096        0.5622865320
 O         5.0831863850       -3.5280090935        0.4958744462
 C         5.1987578948       -2.2076060609        3.2994179673
 C         5.3989073073       -0.7304265690        3.6466563892
 C         5.7666007763        0.3557361465        2.6039878294
 C         4.4234345304        1.2192676198        2.5272720898
 C         4.2350694433        2.3999484883        3.4843448596
 O         5.4099261692       -0.4483913642        4.8599860510
 O         3.5024701129        0.7658250864        1.8623476712
 C         7.0863820605        1.0862434357        3.0379337375
 C         6.1293814514       -0.3222653848        1.2405330286
 C         3.7707266688        2.0016449962        4.9616754725
 C         2.4248756373        1.3503010875        4.9503117361
 C         1.1890287608        2.1679798188        5.5169754203
 C         0.6302456472        3.0329076359        4.2375481846
 C        -0.1414671506        4.3638251160        4.5133733903
 C         0.0231241941        1.1953973227        5.6829172602
 C         1.5093937677        3.0063245597        6.8093228391
 O         2.2728739195        0.2383596298        4.4319662913
 O         0.4924799100        2.4546236100        3.1645073965
 C        -0.0439742958        5.4666170027        3.3905555544
 C         1.4317901847        5.7585292405        3.1068237012
 C         1.8509567521        6.8759019654        2.0970472955
 C         1.3483824970        6.4499778529        0.6008158333
 C         1.6146699593        7.5597257142       -0.5588390010
 O         2.2959901415        5.0688344488        3.6377495507
 O         0.7164392542        5.4976556414        0.3558155082
 C         1.1779749310        8.1899420463        2.5451049415
 C         3.4240400586        7.1231382583        2.2329964009
 H        -9.4986537304        1.1588724145       -5.1979446911
 H        -7.7423356080        0.8972865709       -5.2293250419
 H        -8.7824516074       -0.4976000105       -5.3399655916
 H        -6.5798290034       -1.4963607566       -3.3036779860
 H        -7.0264243131       -2.5280394848       -2.0424306519
 H        -9.9765559329       -0.3963201105       -0.9288323986
 H        -8.3339202709       -0.9521282534       -0.9773863222
 H        -9.7449611210       -2.2119699816       -1.0158419390
 H       -10.9544632745       -0.8666766498       -4.5900336854
 H       -11.1012432595       -2.2639218877       -3.3292875790
 H       -11.4758199498       -0.5333337753       -2.9857664671
 H        -6.4064113932       -4.5565707116       -3.4544005623
 H        -6.5443875270       -3.6272679325       -4.9625683248
 H        -2.0620630038       -2.1692528296       -6.5270758678
 H        -2.2019487713       -2.1795525733       -4.7126383105
 H        -1.9193140943       -5.2973518523       -3.6167861183
 H        -3.3700747288       -5.5194683463       -2.5597014373
 H        -2.6362841430       -3.9064374883       -2.7376580058
 H        -5.0422557953       -6.4209909804       -4.0250202793
 H        -5.4898870216       -5.4990562167       -5.5563486705
 H        -3.9779697480       -6.4482537245       -5.4582474685
 H        -0.3364257699       -3.8945053438       -6.3647210238
 H        -0.4921813859       -3.9326775213       -4.6871419857
 H         1.3923624710        0.4534718771       -2.6102891043
 H         0.2773965048        0.2072942171       -4.0217608918
 H         2.5712451546       -3.7753566035       -5.8436879973
 H         1.6371280499       -4.2553968055       -4.4975603477
 H         3.2120119656       -3.6435417246       -4.3047466975
 H         3.6798430232       -1.1900397819       -5.0515733075
 H         2.5522781251       -1.0739188170       -6.3906875247
 H         2.3182957105        0.0429948313       -5.0800980457
 H        -1.2200324847        0.6018780720       -2.4994734598
 H        -1.2556872537       -1.0368832881       -2.1376028781
 H        -2.0085612328       -3.0906156244        0.9304286962
 H        -1.0518349242       -2.5792654375       -0.3890839421
 H        -1.0696150613        1.7572837351        1.4779587818
 H        -2.5598992482        1.1618851392        1.8098297779
 H        -2.5997210025        1.9997054362        0.3963546979
 H        -3.8839541024       -0.3745269727        0.0149904546
 H        -3.2143116017        0.3660338238       -1.2647551819
 H        -2.6587214194       -1.4127962581       -0.8980110860
 H         0.0381378239       -4.2588403761        0.6996634444
 H        -0.0172898661       -3.5027003957        2.3185367590
 H         3.7615832530       -1.3137377385        2.0377944755
 H         3.2812721651       -2.6510801808        3.1089373239
 H         1.3254494624       -5.3450054283        1.9915751485
 H         2.4926051532       -4.6767849540        2.8870024326
 H         2.9974678652       -5.9788352330        1.9834042546
 H         1.7471471667       -5.4083046045       -0.5223456370
 H         1.9485309925       -3.8420282133       -1.2508299633
 H         3.3819417649       -4.8519847020       -0.9640164836
 H         5.0507753112       -2.9780659537        4.1237582761
 H         6.0491288180       -2.5916699523        2.8427128128
 H         5.2602060405        2.7669512913        3.7866263054
 H         3.6888782426        3.2863278078        3.0628058289
 H         7.3036572584        0.9876651191        4.0957929383
 H         7.0938413486        2.1080943999        2.6371429355
 H         7.8512123042        0.5168039513        2.6500537155
 H         7.1097082543       -0.8367554744        1.2454774067
 H         5.5089895250       -1.0250351521        0.7960011220
 H         6.3696747806        0.4883548680        0.5141595668
 H         3.8232995151        2.9422052937        5.4574210713
 H         4.4477021584        1.2931345524        5.4737114686
 H        -1.1541393961        4.0480712168        4.7792125566
 H         0.2238371699        4.8044999211        5.4141149506
 H         0.2095900109        0.6932194717        6.6185457739
 H         0.2627337104        0.4460072006        5.0173026481
 H        -1.0651756274        1.4625906186        5.6617905855
 H         1.9929416019        2.4797172891        7.6302154714
 H         2.0834562797        3.8016598044        6.4435857544
 H         0.6142807099        3.3883624197        7.3505325009
 H        -0.4635414831        5.0853703260        2.4551489883
 H        -0.7493842253        6.2665371082        3.6271086578
 H         2.3607842282        7.1674749654       -1.2416048892
 H         0.6961590824        7.8086036777       -1.1283933755
 H         1.9809370865        8.4967491681       -0.2648625448
 H         1.1508888222        8.4698610816        3.6233627354
 H         0.2143669921        8.1995053129        2.0690468075
 H         1.6667870027        9.0253179146        2.0956353167
 H         3.9756165018        6.2292973047        2.0523903776
 H         3.5715564262        7.9104432127        1.5722485508
 H         3.6397899105        7.4882974922        3.2766161609
 Na        1.1637564242        0.4645540565        2.3375394157
