155

 C        -9.7157800763        0.3806784833       -4.9505478942
 C        -8.6957982192       -0.0567750435       -3.9426594862
 C        -8.7790344479       -1.4934750372       -3.1703620371
 C        -7.6698881003       -2.4656016470       -3.8922174827
 C        -6.2717814168       -2.7009645721       -3.3003475936
 C        -8.4040282220       -1.3082586480       -1.6359262194
 C       -10.1383552744       -2.1423407937       -3.2218432362
 O        -7.7599669287        0.6407845053       -3.6149670529
 O        -8.1213436785       -3.2568275104       -4.7285939820
 C        -5.3849810333       -3.6086197899       -4.2825752172
 C        -4.0132537402       -3.9384238680       -3.7361063924
 C        -3.1107432377       -4.6942153463       -4.7207913697
 C        -2.7852958355       -3.7155791595       -6.0149528645
 C        -2.0356820726       -2.3947721639       -5.6305740045
 O        -3.6136900862       -3.5545824972       -2.6361704293
 O        -3.1773885458       -3.8614585036       -7.1419157291
 C        -1.8255865281       -5.0705516857       -4.1501539203
 C        -3.7819263351       -5.9193285321       -5.2495174022
 C        -0.6670582950       -2.2676933364       -6.3513145642
 C         0.1139962734       -1.2299850908       -5.6760330800
 C         1.5746243057       -1.5249520843       -4.9918750695
 C         1.1130309503       -1.7329450230       -3.5069803220
 C         1.0293280090       -0.5126501320       -2.5432874364
 C         2.2579332897       -2.8557578826       -5.3925364100
 C         2.4112305371       -0.2169883392       -5.2624474609
 O        -0.2036641629       -0.0612340549       -5.5058719915
 O         0.4097392363       -2.7455900298       -3.2543346140
 C        -0.4703346372       -0.2111570191       -2.2575258131
 C        -0.6558822700        0.1808140408       -0.8030648783
 C        -1.8574809593       -0.3236554825        0.1574220459
 C        -0.9750544206       -1.4377290997        0.9196769589
 C        -0.8306706152       -2.6786565516        0.2122500727
 O         0.2649015753        0.7675479322       -0.2297069377
 O        -0.5801827322       -1.3230308588        2.0590745087
 C        -2.2551614104        0.7877166956        1.0699533970
 C        -3.1062658492       -1.0534175000       -0.4716232203
 C         0.1886291385       -3.5988183241        0.9370017263
 C         1.6735491567       -3.1714081618        0.8887777692
 C         2.7029698713       -4.3414995598        1.3579536176
 C         4.2415089963       -3.9432045387        1.6270980704
 C         4.4236485254       -2.5159332820        2.3081152442
 C         2.3471124707       -4.9671731507        2.6779687099
 C         2.5846843053       -5.3928575130        0.1996446125
 O         2.0314927092       -2.0885717139        0.4097107467
 O         5.1644505131       -4.7385885083        1.5398287159
 C         5.6770273663       -2.1513781317        3.1460022447
 C         5.6181801513       -0.6778901573        3.6566207830
 C         5.7476370706        0.5705596465        2.6298531076
 C         4.3473607009        1.2110190381        2.2363992725
 C         3.9516343214        2.4971754336        3.0491716568
 O         5.4651749315       -0.4761502902        4.8244614794
 O         3.6388852900        0.6301374969        1.3978200320
 C         6.7468919835        1.5568462703        3.4151563201
 C         6.5014523646        0.1307986174        1.3831339946
 C         3.4908770087        2.1647255286        4.4814064890
 C         2.2205421680        1.3195177188        4.4144139994
 C         0.8451246693        1.9297652040        4.9633886331
 C         0.2616155685        2.9271289570        3.7788534049
 C        -0.9260158839        3.9105202109        4.0782692768
 C        -0.1973508965        0.7311750265        5.0250312923
 C         0.9803673218        2.7465643465        6.2919945183
 O         2.2950580166        0.2113451485        3.8743238637
 O         0.5691683784        2.6412845663        2.6111799863
 C        -0.5981655344        5.2500911791        3.2510662377
 C         0.7498576245        5.9488429552        3.6304712403
 C         0.8621211014        7.4187943260        3.7440601424
 C         0.5957559560        8.0408691985        2.2475006674
 C         0.9006976651        9.5175921318        1.8307975564
 O         1.7085471538        5.2275910318        3.8745430537
 O         0.0196661219        7.2622698171        1.4752538122
 C        -0.1999347798        7.9183085033        4.7689918210
 C         2.3095045334        7.9157389297        4.2302898230
 H       -10.5046763405        1.0073098014       -4.5068890059
 H        -9.1102340616        1.0219682759       -5.5704472103
 H       -10.5162086003       -0.2316408600       -5.5331035847
 H        -5.7385863175       -1.7053670320       -3.0799421383
 H        -6.4045435965       -3.1934355152       -2.3337716244
 H        -9.1550918727       -0.6546511843       -1.1760488130
 H        -7.4252482769       -0.8121988540       -1.4485433150
 H        -8.4716155467       -2.2853135654       -1.1870915089
 H       -10.3516796805       -2.5750376359       -4.2760797562
 H       -10.2562644105       -3.0223185366       -2.5330032595
 H       -10.9981510168       -1.4766979290       -3.1346180571
 H        -6.0199553805       -4.4988284287       -4.4405973834
 H        -5.1792770151       -3.2304681960       -5.2757182904
 H        -2.7315932523       -1.5449408221       -5.8531554508
 H        -1.8777391056       -2.3231944500       -4.5692504458
 H        -1.1050686085       -5.4712572002       -4.8099867525
 H        -1.9067738351       -5.7827704354       -3.3774436556
 H        -1.2012071204       -4.2187257803       -3.7962278904
 H        -3.6406391558       -6.9293197474       -4.7507178288
 H        -4.8778642805       -5.8624416671       -5.3638027459
 H        -3.4053251201       -6.1928681032       -6.1988956617
 H        -0.7591062947       -2.0500657021       -7.3874112452
 H        -0.1657496137       -3.2440441271       -6.2587241573
 H         1.5099734337       -0.7063947848       -1.5573776743
 H         1.6754350010        0.3726399325       -2.9386138079
 H         2.6433953529       -2.8962301852       -6.4841419777
 H         1.5896807161       -3.6536701941       -5.2054016851
 H         3.1947371297       -2.9640642208       -4.8228652029
 H         3.3471520355       -0.2316760036       -4.7228531082
 H         2.5661378251       -0.0927585655       -6.2662149108
 H         1.8374684475        0.5818960141       -4.8883749045
 H        -0.7794995094        0.5839347778       -2.9274837908
 H        -1.0851342211       -1.1041991946       -2.4476982760
 H        -1.7612044665       -3.2312885312        0.4033255463
 H        -0.5994473003       -2.7486641660       -0.9115298276
 H        -1.3834371098        1.3538221507        1.5010444672
 H        -2.7150852137        0.4332718954        1.8984552715
 H        -2.8579156036        1.6559684496        0.7356873615
 H        -3.8767736041       -1.2823282993        0.2916681755
 H        -3.7195962805       -0.3060147760       -1.1064239570
 H        -2.9139770141       -1.8904353611       -1.0935252435
 H         0.1982260477       -4.6539233723        0.7222707268
 H        -0.0111608649       -3.6354573501        1.9781712026
 H         4.3726992096       -1.8102357111        1.4066310326
 H         3.4733143874       -2.2998996008        2.8553107518
 H         1.2786520406       -5.2605848982        2.6698315459
 H         2.5094146872       -4.2320615217        3.4268877348
 H         3.1359791827       -5.7079374114        2.9105206601
 H         1.6961158474       -6.0544632093        0.4450125045
 H         2.4439915542       -5.0337849024       -0.8346071764
 H         3.3833892848       -6.0972123808        0.2943536348
 H         5.8273936110       -2.8577476762        4.0450228935
 H         6.5821858030       -2.1619671790        2.5879728979
 H         4.8701958868        3.0983291199        3.1119478241
 H         3.1366688857        3.0418351253        2.5619796628
 H         6.5875730318        1.5196390894        4.4857128396
 H         6.8080396947        2.5926904905        3.1010892349
 H         7.6952867714        1.1147267952        3.4132746446
 H         7.5087569650       -0.2925858687        1.5731145821
 H         5.9552214830       -0.5465506633        0.8165450527
 H         6.7330314939        1.0543872997        0.7968967001
 H         3.2811841351        2.9933619258        5.0711335255
 H         4.3522907612        1.6703994790        4.9642457150
 H        -1.7712964853        3.3681798956        3.7066135521
 H        -1.0401795673        4.0517945072        5.1754692828
 H         0.2519778694       -0.0716660079        5.6122454517
 H        -0.5638038555        0.2914308488        4.1636884644
 H        -1.0979765303        1.0860315847        5.6172194233
 H         1.4223071075        2.1511435725        7.0861997990
 H         1.3660006690        3.6629038229        6.0512390333
 H        -0.0863460731        2.8180792597        6.6695201805
 H        -0.4821380743        5.1880029495        2.1601557724
 H        -1.3275581138        6.0004705426        3.5149183262
 H         1.8571631339        9.4877744068        1.2995809080
 H         0.2783797086        9.8928575967        0.9862835378
 H         0.9817120483       10.1404475030        2.6496035572
 H         0.2860751977        7.6780930026        5.8013825940
 H        -1.2344553815        7.4321273098        4.6389163952
 H        -0.3540378739        8.9738635512        4.7977909988
 H         3.0260948083        7.5998201242        3.4882088854
 H         2.2660749053        8.9652857294        4.4062545577
 H         2.6055669278        7.4199211895        5.2026650019
 Na        1.1679790198        0.1586635500        1.6280382684
