155

 C        -6.8666606774       -1.5349315272       -5.6269072526
 C        -6.9802514372       -1.1577022643       -4.2062646096
 C        -7.2389488990       -2.2101790719       -3.1222692576
 C        -6.6027854136       -3.5426453061       -3.6915451877
 C        -5.0769526988       -3.7564272361       -3.9132049578
 C        -6.5249655975       -1.9135572976       -1.7120424958
 C        -8.7622620422       -2.3428285683       -2.8704192453
 O        -6.9066465158        0.0106866950       -3.8249902418
 O        -7.3437641972       -4.3443988876       -4.1511942689
 C        -4.5950942902       -4.6283627112       -5.1760883962
 C        -3.1630499961       -4.1944244276       -5.4562001264
 C        -2.4395538235       -4.8731876374       -6.6359869033
 C        -1.9037353277       -3.7509581406       -7.5435436357
 C        -0.6462448748       -2.9488536382       -7.3107722407
 O        -2.5770822565       -3.4066422271       -4.7212301729
 O        -2.4568924786       -3.4775779756       -8.5901996260
 C        -1.2386824435       -5.6995498392       -5.9305222865
 C        -3.1428658359       -5.9943454028       -7.6156298761
 C        -0.6031893277       -1.5717599640       -8.0500409395
 C        -0.3236148395       -0.5409386290       -6.9680994129
 C         1.1618240130       -0.3234059561       -6.4336780787
 C         1.1469212524       -1.1550361800       -5.0538615402
 C         0.2440155716       -0.6710816646       -3.8621589312
 C         2.1589417819       -0.9498874330       -7.4892670946
 C         1.6394156655        1.1228688220       -6.1906881704
 O        -1.2817882247        0.0044441149       -6.5194370631
 O         1.9430932968       -2.0757807346       -4.9046780541
 C         0.6434981059       -1.2715467353       -2.4840196595
 C        -0.0358879682       -0.6562128240       -1.2894601671
 C        -1.5115532229       -0.9401519104       -0.9296271878
 C        -1.2319469792       -1.5607148531        0.5015359228
 C        -0.8226258210       -2.9438055000        0.6873293933
 O         0.5172856551        0.1308465665       -0.5790658948
 O        -1.2778059691       -0.8797557720        1.4887894510
 C        -2.2867275143        0.3925822081       -0.6532099688
 C        -2.2767442036       -1.9261259009       -1.9160904501
 C        -0.0020680572       -3.2212728367        1.9373295735
 C         1.4892572945       -2.7718755525        1.8647468549
 C         2.5654613405       -3.5056301788        2.7325899910
 C         3.9624523306       -2.9007319186        2.7856326961
 C         4.1199083131       -1.4255362636        2.9100660722
 C         2.0642027955       -3.4641253485        4.2054914561
 C         2.6207484222       -4.9451962586        2.2052855606
 O         1.6884957790       -1.8302882234        1.1252004747
 O         4.8719414660       -3.7097420412        2.9013090002
 C         5.5180733779       -0.8331935528        3.2461806905
 C         5.5177880773        0.7015147234        3.5285655753
 C         5.1025499705        1.6162622426        2.3329499022
 C         3.5243096452        1.9175229594        2.1847823025
 C         2.8887496211        2.7217850689        3.2490487930
 O         5.9021973735        1.2164969548        4.5669203848
 O         2.8943269666        1.5792596335        1.1977541290
 C         5.8954738620        2.9621704691        2.4024467479
 C         5.4524825217        1.0534045601        0.8575659789
 C         2.6832695435        1.9640464676        4.5602911695
 C         1.4684110684        1.1469568062        4.4499736722
 C         0.0937592966        1.4967478572        5.0816847678
 C        -0.5044913046        2.6955751782        4.1363910436
 C        -1.7148145634        3.6426204704        4.5896012706
 C        -0.8962014414        0.4185928324        4.9078417167
 C         0.1438356562        1.9019842281        6.5410525244
 O         1.5417919071        0.1254130494        3.8089170512
 O        -0.2427476681        2.5655943428        2.9552134343
 C        -1.1921141950        5.0427673690        4.6385879773
 C         0.0766073049        5.1745484579        5.4302215611
 C         0.2771910446        6.2556713313        6.4945534087
 C        -0.3003209537        7.6150526398        5.9315008339
 C        -0.1434893859        8.8718878865        6.7913889250
 O         0.9721306322        4.4092263106        5.0804200421
 O        -0.9726341779        7.6547896314        4.9310258679
 C        -0.5749156408        5.8782876569        7.7812126345
 C         1.7006882576        6.4462629704        6.9687974159
 H        -7.6664463850       -1.7242891036       -6.2422276075
 H        -6.4873894155       -0.5637491396       -6.1168834616
 H        -6.3575191548       -2.5205599793       -5.7420036145
 H        -4.5459805181       -2.8372265253       -3.9101523009
 H        -4.6714929153       -4.2362862107       -2.9926127053
 H        -6.7240036672       -0.8769984828       -1.3879629513
 H        -5.3989270561       -2.1033697309       -1.7493260873
 H        -6.9404530373       -2.5888899064       -0.9432870235
 H        -9.1995860967       -2.8896114792       -3.6440777534
 H        -8.8945845015       -2.9685067517       -1.9221825117
 H        -9.1050372650       -1.3567982473       -2.4537645394
 H        -4.6906057777       -5.6998011843       -4.9526091573
 H        -5.2132631953       -4.3421811659       -6.0153666643
 H        -0.5255414720       -2.9479058865       -6.2288220478
 H         0.2256631224       -3.5345779358       -7.7166291151
 H        -0.6852175103       -6.2538834033       -6.7218455754
 H        -1.6416738777       -6.3937170514       -5.1554358360
 H        -0.6554105882       -4.8778527391       -5.5271139234
 H        -3.6589856880       -6.7542872917       -6.9926764200
 H        -3.7325402554       -5.4324084244       -8.3234070904
 H        -2.3261243136       -6.3975749072       -8.0906949888
 H        -1.6428670121       -1.4688361232       -8.3621968106
 H        -0.0171984720       -1.4273698688       -8.9490668915
 H         0.4509910847        0.4186853536       -3.8904369989
 H        -0.8409198686       -0.6984962482       -4.0772795494
 H         2.1617257061       -0.3952484930       -8.4534620602
 H         1.8202065358       -1.9207959274       -7.6415502991
 H         3.1944217762       -1.0508454523       -7.2142655531
 H         2.2962138832        1.3458537082       -5.2868499368
 H         2.1167160255        1.5151979037       -7.1897729532
 H         0.7745616910        1.7873915347       -6.1342596339
 H         0.5772466098       -2.3515188487       -2.4744277761
 H         1.6815366599       -1.0454842918       -2.4348710913
 H        -1.6522405848       -3.7140008453        0.7289130277
 H        -0.1696643426       -3.1608771387       -0.1679180780
 H        -1.7415031982        1.0211525155        0.0421819868
 H        -3.1694673427        0.0627029832       -0.0857889067
 H        -2.4217139626        0.8876181864       -1.6055883547
 H        -3.3152212810       -1.6359430999       -1.9656470319
 H        -1.7243886386       -1.7952872039       -2.8328726747
 H        -2.0267832478       -2.8962774567       -1.7310816994
 H         0.0240844552       -4.2119543900        2.2849943668
 H        -0.4301672591       -2.7643117149        2.8059929161
 H         3.7628819366       -0.8294011588        2.0110345281
 H         3.5318922177       -0.9786725850        3.7226074581
 H         1.1128623027       -3.9807945537        4.3053923806
 H         1.8666895639       -2.4623687554        4.5258921797
 H         2.7504339952       -3.8287878893        4.9911707340
 H         1.5631299346       -5.3811571590        2.0143911936
 H         3.1323820890       -4.9042111801        1.2656733262
 H         3.1404667382       -5.6929971283        2.7811479200
 H         5.8420236366       -1.3587131766        4.1477979077
 H         6.1409614719       -1.2781924891        2.4479114577
 H         3.5285846809        3.5962358119        3.4677637541
 H         1.9333160718        3.1253909754        2.9454122062
 H         5.8463045079        3.2150929335        3.4641248253
 H         5.4440137991        3.7600196832        1.8331687279
 H         6.8764205205        2.8580214481        1.9723502750
 H         6.5443660247        1.0847371012        0.5988342505
 H         5.0443603625        0.1040146136        0.7131297459
 H         4.9779414557        1.7273583127        0.1619382258
 H         2.5567064278        2.6539580251        5.4202857762
 H         3.5456001083        1.3901922393        4.7689112315
 H        -2.4253099790        3.4164271451        3.7346344999
 H        -2.2878915367        3.3184107190        5.4770549761
 H        -1.9130150299        0.7509958274        4.5479237364
 H        -1.1015148248        0.0042879619        5.8747981304
 H        -0.5426643676       -0.4143612197        4.2828830028
 H         0.3803209633        0.9113019089        6.9565689888
 H         0.9302208217        2.5366606234        6.8563305931
 H        -0.8836380615        2.3881370333        6.7773468735
 H        -0.9771980950        5.5843795066        3.7189610845
 H        -1.9617418022        5.7309153388        5.0932517118
 H         0.9635363835        9.0412274355        6.9166963952
 H        -0.5312123709        9.7482222087        6.2591364844
 H        -0.6911180350        8.6792754551        7.7021899389
 H        -0.5546588878        4.8740329415        8.0511769756
 H        -1.5732894064        6.2634288212        7.5894545724
 H        -0.1750593497        6.4171423243        8.7004657427
 H         2.3870548337        6.6786092752        6.1540076227
 H         1.9261162822        7.3025270295        7.6381567189
 H         2.1323802201        5.6028945098        7.4403209287
 Na        0.7273198271        0.7320999561        1.4970415266
