155

 C        -6.8457759036       -1.2852051195       -5.6720947962
 C        -6.6671250010       -1.1640158232       -4.1967174644
 C        -6.9392500254       -2.4336410064       -3.3012077112
 C        -6.4804958666       -3.7703442917       -3.9366585309
 C        -4.9427307669       -3.9062340904       -4.0794905422
 C        -6.0912229539       -2.1849738423       -2.0257032986
 C        -8.4672304368       -2.6967263749       -2.9878496391
 O        -6.4108995992       -0.0778025461       -3.7086853267
 O        -7.1674521105       -4.6688991393       -4.3606863986
 C        -4.6077353998       -4.3922738989       -5.4786261467
 C        -3.0636826802       -4.2340704203       -5.7035467709
 C        -2.2508398560       -5.1142059647       -6.8665453916
 C        -1.9096023744       -3.9641643929       -7.9017065273
 C        -0.6608168972       -3.0876924066       -7.4982779529
 O        -2.4114361087       -3.4645039134       -5.0175622568
 O        -2.7233838420       -3.6466784162       -8.7866191135
 C        -0.8747538392       -5.8416933965       -6.5492999954
 C        -3.2149308063       -6.0407917618       -7.5043601333
 C        -0.8788608541       -1.6424890054       -7.9094463450
 C        -0.4747042743       -0.5759279090       -6.8887181675
 C         1.1097145200       -0.1840927306       -6.4917228392
 C         1.3365899960       -0.8575220425       -5.0357117781
 C         0.4223510061       -0.3990218446       -3.7974110412
 C         2.1965875268       -0.5881448977       -7.4900936253
 C         1.1249853097        1.4039201910       -6.4035452602
 O        -1.3047962787        0.1530534461       -6.4431635829
 O         2.1379123308       -1.7933632606       -4.9668371974
 C         0.7379692468       -1.3278915402       -2.6390034827
 C         0.2010540150       -0.7036946647       -1.4177732449
 C        -1.2933775718       -1.0169902455       -0.8766282932
 C        -1.1617422307       -1.5410011564        0.5927583423
 C        -0.8590410772       -3.0567931779        0.7642873003
 O         0.7556914755        0.3062764927       -0.9859908726
 O        -1.2303085660       -0.7589886321        1.5660459070
 C        -2.0727612214        0.2970295742       -0.8014213647
 C        -1.9705880882       -2.0384665877       -1.7499984966
 C        -0.0172084878       -3.5407830493        1.9114134102
 C         1.3504203479       -2.7570019061        2.1578751796
 C         2.5409357097       -3.4565045665        2.9592414008
 C         3.9346598629       -2.7158705031        2.7951215837
 C         4.0564622662       -1.2515202045        2.5984473142
 C         2.0619342900       -3.4947350284        4.4045651327
 C         2.7930468127       -4.9220792275        2.4165830730
 O         1.5180180545       -1.6945112666        1.5858233514
 O         4.9503098859       -3.3681790178        2.9252828600
 C         5.5123189330       -0.7239748828        2.7533190930
 C         5.4180442695        0.7527124084        3.1914260761
 C         5.1596626529        2.0065845496        2.1409303022
 C         3.5154518467        2.0077737030        2.2996142629
 C         2.9041878258        2.7362597208        3.4797676461
 O         5.5378966870        1.0296365842        4.4235010634
 O         2.9103064772        1.1355116842        1.6509405467
 C         5.8556388124        3.2337054384        2.7444028502
 C         5.5246334737        1.8021316966        0.7203738596
 C         2.3929046869        1.8298405967        4.7417086044
 C         1.1932320457        0.9592456295        4.4989633426
 C        -0.2504956955        1.4030902786        4.8868675963
 C        -0.8170814375        2.6115289398        4.0212436347
 C        -1.8353347632        3.6097029102        4.7619348019
 C        -1.1528579406        0.1190657262        4.6660469448
 C        -0.2020032129        1.7628896644        6.4524278968
 O         1.4292852997       -0.0849452153        3.9192461217
 O        -0.5807178188        2.7729278327        2.8499704290
 C        -1.4398518253        4.9750571951        5.2691370821
 C         0.0233224065        5.1362779582        5.7537351089
 C         0.2167663332        6.3524309693        6.7747923959
 C        -0.3948424742        7.7014491866        6.3495935794
 C        -0.0969560354        8.8877599263        7.2849422481
 O         0.9244541794        4.4780277090        5.2559045859
 O        -1.0373804604        7.8336045656        5.3053139357
 C        -0.4905993927        5.9593519540        8.1277854593
 C         1.6872062331        6.6023651306        7.0462743568
 H        -7.5172022773       -2.0577157914       -6.0545331033
 H        -7.3805743742       -0.3749674869       -6.0793210437
 H        -5.9366926399       -1.5988194623       -6.1352105445
 H        -4.4607891504       -2.9873664044       -3.8771288763
 H        -4.6182328648       -4.6845249943       -3.3609017895
 H        -6.4654573000       -1.3886033608       -1.3966593310
 H        -5.1160952196       -1.7935425168       -2.3487527112
 H        -5.9801709065       -3.0613665190       -1.5153378457
 H        -9.0743654362       -2.7846476273       -3.8184000766
 H        -8.4594261756       -3.6642466244       -2.4964042596
 H        -8.7648310792       -1.9684552073       -2.2140622895
 H        -5.0755060934       -5.4010077582       -5.5013170814
 H        -5.1849213779       -3.8200901369       -6.2452170792
 H        -0.5657512119       -2.9688924639       -6.4232265535
 H         0.2381029046       -3.6707385100       -7.9139124198
 H        -0.4485140610       -5.9216727404       -7.5699895060
 H        -1.1372682161       -6.7959059632       -6.0872608247
 H        -0.2389663081       -5.2431889128       -6.0113548934
 H        -3.5017400767       -6.8479254936       -6.7397804981
 H        -4.0498842724       -5.4632202557       -7.8909785802
 H        -2.6063918874       -6.4984341834       -8.2394763923
 H        -1.9248443145       -1.3629062235       -8.1104327965
 H        -0.2498318281       -1.4930550236       -8.7913811784
 H         0.4726957302        0.6552659612       -3.6215876499
 H        -0.6448817843       -0.5521225804       -4.0293829432
 H         1.9780112921       -0.2717341492       -8.4547074903
 H         2.3906363220       -1.6371868887       -7.5310890153
 H         3.1035440171       -0.1096438553       -7.2053558044
 H         2.1247308077        1.7267671545       -6.1624825024
 H         0.8933711861        1.7683683718       -7.4445392261
 H         0.5458878995        1.8565069176       -5.6480928309
 H         0.4434632797       -2.3719916033       -2.7420321924
 H         1.7729056551       -1.5058317784       -2.7159760735
 H        -1.7759102306       -3.6761778259        0.8340754985
 H        -0.3626946386       -3.3693792603       -0.1234277981
 H        -1.3873291762        0.9926944170       -0.3933179176
 H        -2.9821713206       -0.0087243463       -0.1451576513
 H        -2.4113596841        0.7160986034       -1.7743483797
 H        -2.7814713893       -2.5696052531       -1.2576541867
 H        -2.4747163271       -1.4740424435       -2.5822449135
 H        -1.1429796034       -2.7065904589       -2.1396726835
 H         0.3117498561       -4.5670051289        1.7240184578
 H        -0.4914591370       -3.7571769971        2.8778039163
 H         3.8524742348       -1.2215454748        1.4829508688
 H         3.4435020051       -0.4520650551        2.9931571023
 H         1.0427003583       -3.8798733679        4.3718771284
 H         2.1643025498       -2.6242195601        4.9550098193
 H         2.5880566467       -4.1332029880        5.0388115870
 H         2.1130763614       -5.6341336828        2.9794511687
 H         2.6843794671       -5.0136520021        1.3433243934
 H         3.7436890459       -5.2690338406        2.7158190022
 H         5.9875805437       -1.3890833598        3.4420324704
 H         6.0506479396       -0.8771845337        1.8347985453
 H         3.6297564205        3.3798489024        3.9760960541
 H         2.1272362644        3.4331399598        3.2600000812
 H         5.5434081974        3.4590018668        3.7427199422
 H         5.7493368372        4.0530231306        2.1453219718
 H         6.9274666655        2.9578116621        2.8062355432
 H         6.5633164186        1.4342006576        0.5375449975
 H         4.9126194697        1.0742810097        0.2868078851
 H         5.4090886187        2.7819809629        0.2562720850
 H         2.4062394839        2.4555535894        5.6566671129
 H         3.1269743957        1.0245784773        4.8294373684
 H        -2.7622396469        3.7204298734        4.1685202648
 H        -2.3840216714        2.9421632404        5.4016484323
 H        -1.5702502702        0.1482071970        3.6734618875
 H        -1.9597328995        0.0784468736        5.3201710109
 H        -0.5431035079       -0.8293590153        4.7170168016
 H         0.4692069105        1.0283226374        6.9713061944
 H         0.2798224751        2.7673505063        6.4360367522
 H        -1.1838362170        1.7187357204        6.9662986872
 H        -1.6255730010        5.7430206309        4.5493128834
 H        -2.0975077653        5.3835779862        6.0646541374
 H         1.0060102242        8.9000593969        7.2445166320
 H        -0.5732292364        9.7543450248        7.0112958491
 H        -0.4716945253        8.6260037078        8.3275357499
 H         0.1281978267        5.3131991822        8.6901652628
 H        -1.4363068158        5.5266145104        8.0150636582
 H        -0.6171044783        6.8024310627        8.7311844766
 H         2.3698447158        6.9633449089        6.2882898292
 H         1.9133521298        7.0756834662        8.0009462412
 H         2.1491036623        5.6124159305        7.1833597151
 Na        0.5181629126        0.4692176621        1.4510257718
