155

 C        -7.2674363815       -1.1546496661       -5.3756841070
 C        -6.5417501929       -1.2789876201       -4.0336103380
 C        -6.8884223528       -2.5776710713       -3.2940547635
 C        -6.1415253267       -3.7700677534       -4.1744777194
 C        -4.6473184565       -3.7277491339       -4.3561957854
 C        -6.2078054018       -2.5100878010       -1.9109323999
 C        -8.3872696605       -2.8005929012       -3.2486106766
 O        -5.7413629489       -0.4343393107       -3.6982995752
 O        -6.7858188058       -4.5511395355       -4.8391729616
 C        -4.2485621914       -4.5216819115       -5.5577640772
 C        -2.6666870202       -4.6971673741       -5.7057407457
 C        -2.0795588044       -5.1310066371       -7.1511749378
 C        -1.7482950291       -3.8454988375       -8.0423637169
 C        -0.6796240050       -2.9069828079       -7.6207515223
 O        -1.9473298677       -4.4100799837       -4.7535859009
 O        -2.3906273771       -3.6204843010       -9.0528932069
 C        -0.6772440957       -5.8713688507       -6.9880407330
 C        -3.0596072989       -5.9593755370       -8.0746696800
 C        -1.0297455283       -1.4346142651       -8.1230680012
 C        -0.7046252609       -0.3720231916       -6.9745067496
 C         0.8383776983       -0.0487385316       -6.6698795211
 C         1.2173609898       -0.6932766785       -5.2238190145
 C         0.4971300217       -0.1520995051       -3.9166969274
 C         1.8734649107       -0.4812162975       -7.7673197884
 C         0.9225941991        1.5027555189       -6.6732980885
 O        -1.5044315352       -0.0137639723       -6.1307467851
 O         2.0766287588       -1.5453510046       -5.1151454676
 C         0.8560542275       -1.0316093264       -2.6923571274
 C         0.3064135245       -0.7073209002       -1.3268142853
 C        -1.0663482670       -1.1474303310       -0.8728684291
 C        -1.0141228011       -1.7445397882        0.5966101516
 C        -0.5988714796       -3.1966903725        0.7775691388
 O         0.9406726582        0.0466342225       -0.5845113058
 O        -1.2221028379       -0.9880908630        1.5827643004
 C        -2.0224825189        0.1354744207       -0.7272131804
 C        -1.6917163908       -2.0793857969       -1.9751592727
 C         0.0537730284       -3.3357488602        2.1074470559
 C         1.4902337811       -2.7727071894        2.0730420564
 C         2.6297665030       -3.4044432905        2.9143302269
 C         4.0068618444       -2.7497772750        2.6939326757
 C         3.9157307511       -1.2649850144        2.3620640363
 C         2.2413786279       -3.1735152235        4.3914973380
 C         2.6919817494       -4.9199584350        2.6692118905
 O         1.5868461864       -1.8504813126        1.3034369465
 O         5.0363315776       -3.3982730108        2.7087691059
 C         5.3726574080       -0.6987697024        2.5055860861
 C         5.2347795678        0.7085672188        3.2060146523
 C         4.8541411931        2.0603535044        2.4201792374
 C         3.3512606657        2.2238957914        2.4895736602
 C         2.6704756194        2.8069578659        3.6895185596
 O         5.5641041481        0.9405821672        4.3733426564
 O         2.5792852471        1.9739165382        1.5398667349
 C         5.4995041866        3.3513732971        3.0657957525
 C         5.3106640050        2.0046706871        0.9203899866
 C         2.2180881526        1.8660381930        4.8813893721
 C         1.0648368446        0.9074186069        4.5270226114
 C        -0.4269030689        1.2863904730        5.0497241714
 C        -0.8725051728        2.6569191045        4.2735004790
 C        -1.9570334488        3.6010294500        4.9085819222
 C        -1.4707057975        0.1731303848        4.7388539369
 C        -0.3985087393        1.4476721808        6.5461732855
 O         1.1647118008        0.0016199227        3.7322952938
 O        -0.3624549756        2.8274077886        3.1900278635
 C        -1.4422987978        5.0539746801        5.0057136418
 C        -0.0781841203        5.1562538067        5.8264083258
 C         0.1309572026        6.1948639053        6.9413296842
 C        -0.5161192701        7.6235517730        6.5841482499
 C        -0.0813996229        8.7451798696        7.4665551620
 O         0.7455664042        4.3139584095        5.5400772620
 O        -1.2635401822        7.7880260776        5.6488641800
 C        -0.4678051660        5.6706140017        8.2922286531
 C         1.6612626525        6.4095671161        7.0780659458
 H        -7.3554803232       -2.2631154260       -5.7965184052
 H        -8.3159953327       -0.8870342118       -5.2206014500
 H        -6.8358405317       -0.5607787690       -6.1294127325
 H        -4.2718488045       -2.7584150081       -4.5795364370
 H        -4.2428804930       -4.1118975644       -3.3834787846
 H        -6.3910868619       -1.5424109068       -1.4319716150
 H        -5.1122501590       -2.5636460024       -2.0132250369
 H        -6.5299991723       -3.2607163069       -1.2956744802
 H        -8.6932668657       -3.1136459693       -4.2469818221
 H        -8.6633355768       -3.4531845895       -2.5030820931
 H        -8.7922574412       -1.8232609542       -3.2081548547
 H        -4.8649463150       -5.4344258363       -5.7120336117
 H        -4.6458057248       -3.9102106049       -6.4175464646
 H        -0.8088484144       -2.8451109495       -6.5591255767
 H         0.3712400465       -3.2462350069       -7.8921523320
 H        -0.3809927340       -6.2894299115       -7.9760326716
 H        -0.7808708463       -6.6321726085       -6.2154850812
 H        -0.0237760996       -5.1419611906       -6.7081622612
 H        -3.4220778870       -6.8243646185       -7.4453049255
 H        -3.9018877393       -5.3199050962       -8.3056312718
 H        -2.5786723445       -6.2122094106       -9.0123292697
 H        -2.1202587308       -1.4019438672       -8.4256823784
 H        -0.4100627238       -1.4098217645       -9.0338021078
 H         0.8555700499        0.8212708307       -3.6560089026
 H        -0.6040264786       -0.0170715818       -4.0074699897
 H         1.5575156996       -0.0541285309       -8.6498793492
 H         2.0102781943       -1.5684189283       -8.0416478191
 H         2.8889220853       -0.0954445797       -7.5392821589
 H         1.8246236320        1.7896461119       -6.2483040542
 H         0.9236589844        1.8829336846       -7.6556276975
 H         0.0865550619        1.9281287497       -6.1230545421
 H         0.7830562022       -2.1539610249       -2.8553665191
 H         1.9421360125       -0.9392227725       -2.5727191738
 H        -1.4396100437       -3.8848070444        0.7368782570
 H         0.0391240841       -3.5085792633        0.0165973835
 H        -1.7256052313        0.6283966431        0.1493192774
 H        -3.0472144823       -0.3798487214       -0.7278285662
 H        -2.1288065440        0.7947277232       -1.5984891750
 H        -2.6411585042       -2.4617337471       -1.5934026211
 H        -1.8464063820       -1.4455591651       -2.8521853494
 H        -1.1719166252       -3.1111005124       -2.1301215123
 H        -0.0524796579       -4.3335660343        2.6117510344
 H        -0.5087957661       -2.6021581064        2.7983739072
 H         3.6288870386       -1.0009272438        1.3418815019
 H         3.1809820416       -0.6480060605        2.9182379302
 H         1.4363902018       -3.8972905800        4.7804739940
 H         1.8522693488       -2.1508100109        4.5934886258
 H         2.9993696416       -3.3192983389        5.1170802275
 H         1.8379403741       -5.5317117947        3.0151227117
 H         2.7388016254       -5.0664208847        1.5908543837
 H         3.5562064960       -5.2990313221        3.1203341204
 H         5.9062203391       -1.3310744553        3.1845290983
 H         5.8416444378       -0.8226213228        1.5588778251
 H         3.3293234577        3.5204464572        4.2161758925
 H         1.8535181555        3.3874180050        3.3212836384
 H         5.6253849709        3.2534711729        4.1373416317
 H         4.8527150021        4.1330934981        2.8900540486
 H         6.5431984815        3.5367972335        2.6818324021
 H         6.3454313330        1.6974581177        0.7914736452
 H         4.7425064561        1.3388805439        0.2325934282
 H         5.1485958169        3.0278043033        0.4681949051
 H         1.8806835134        2.4351956901        5.7590292434
 H         3.1470383108        1.3038282219        5.2115419894
 H        -2.8859114190        3.5374548703        4.2241917879
 H        -2.2903615584        3.1083606563        5.8864089817
 H        -1.2871781876       -0.4340581964        3.9133799540
 H        -2.3927897491        0.6502951764        4.5857100213
 H        -1.6228124415       -0.4866423408        5.6602860424
 H        -0.2137732418        0.4898287984        7.0443272652
 H         0.3392027712        2.2618600111        6.9010741014
 H        -1.3630021957        1.6757733079        6.8891005908
 H        -1.1020536342        5.4844024363        4.0787230464
 H        -2.3266993604        5.6315669784        5.3229895639
 H         0.7707596685        9.1393662203        6.9821898441
 H        -0.9353188083        9.3534288397        7.5791248016
 H         0.2495909826        8.3467560542        8.4643737217
 H        -0.4809560279        4.5683377750        8.4406897512
 H        -1.4937331444        5.9923321423        8.4034315764
 H         0.0146694889        6.1112258014        9.0621996995
 H         2.1428444541        6.5858958154        6.1020921111
 H         1.9576349772        7.1446042533        7.7737531059
 H         2.2462063930        5.4923835365        7.4147855616
 Na        0.4679699140        0.9699784529        1.8510625103
