155

 C        -7.1740592429       -0.4240261728       -4.0221973155
 C        -6.0854249673       -1.5337507951       -3.9490293284
 C        -6.4959514068       -3.0107997162       -3.6988972500
 C        -5.8154222358       -3.9938678026       -4.8340575851
 C        -4.2669676972       -3.9060902048       -4.9579688009
 C        -5.6868137751       -3.2825757303       -2.3736804937
 C        -7.9986608933       -3.2995880548       -3.4599371367
 O        -4.9318203636       -1.1963780529       -3.9829817981
 O        -6.5018517511       -4.5502933840       -5.6684937437
 C        -3.8241456573       -4.6956851452       -6.1854620065
 C        -2.3803283694       -5.2211472430       -6.1308842963
 C        -1.6011107342       -5.2933006661       -7.5762652817
 C        -1.6372362995       -3.7796075691       -7.9992584735
 C        -0.9590911302       -2.6737771684       -7.0278093074
 O        -1.7676131552       -5.6055922118       -5.1349958286
 O        -2.1003958612       -3.4179459990       -9.0527344315
 C        -0.0650721865       -5.6753181862       -7.2727884461
 C        -2.4769695475       -6.2116712518       -8.5417230883
 C        -1.3413130526       -1.2750689094       -7.5755292289
 C        -0.9143172527       -0.2702946492       -6.5290696567
 C         0.6689009514        0.3175076933       -6.3897297705
 C         1.1593974986       -0.4576416902       -5.0551349032
 C         0.8308872157        0.3012175506       -3.6919832646
 C         1.4503263615       -0.0167644405       -7.6773519322
 C         0.3459058889        1.8813123855       -6.2652792889
 O        -1.6383471089       -0.1043655826       -5.5261934170
 O         1.7821023949       -1.4664591663       -5.1042760579
 C         1.3128068823       -0.4298111225       -2.4432360934
 C         0.3103388665       -0.0719920130       -1.2765907520
 C        -0.9980121515       -0.9848361974       -1.0526967756
 C        -0.8517595017       -1.6096470846        0.3844856523
 C        -0.8584057802       -3.1765211107        0.7550432989
 O         0.5137197271        0.8490079057       -0.5637727547
 O        -0.6159863161       -0.8462355327        1.3066775121
 C        -2.1634090529       -0.0122509991       -1.2211675561
 C        -1.1075391171       -2.0946987220       -2.0717545452
 C         0.1276914623       -3.4353787151        1.9726473806
 C         1.5943138242       -3.0260373684        1.4745648847
 C         2.6633882734       -3.2172398894        2.5454649312
 C         3.9145931980       -2.3265905621        2.1963863642
 C         3.8475142372       -0.8704262160        2.5586453456
 C         2.1763700109       -2.9176988893        4.0020140410
 C         3.0451204751       -4.6886118794        2.3950570209
 O         1.7868835189       -2.7040254122        0.3304619165
 O         4.9268057958       -2.8983287982        1.8335993257
 C         5.3724084332       -0.4108838541        2.8985425151
 C         5.3370540721        0.9471508788        3.4884627879
 C         4.7669578739        2.2600372527        2.5905405557
 C         3.2807567924        2.2628630412        2.8561799641
 C         2.7714937944        2.4832104840        4.3663415072
 O         5.6578392401        1.1921549303        4.5976987394
 O         2.4170071370        2.1733591998        1.9815165572
 C         5.4059633117        3.4959616746        3.1429332937
 C         5.1157272575        2.0965180346        1.1258882302
 C         1.9836056732        1.4398263321        5.2632836176
 C         0.7757030236        0.9911653793        4.6005282472
 C        -0.7022369242        1.1854741150        5.2384110580
 C        -1.2206842572        2.4359848838        4.4358314851
 C        -2.2975460691        3.3897913316        5.2244429797
 C        -1.6226152989       -0.0736881501        4.8885945381
 C        -0.5830336112        1.3696638076        6.7836070793
 O         1.0143531972        0.2672626158        3.6214671684
 O        -0.9833134757        2.6409307775        3.2462137848
 C        -1.8255807257        4.8898835088        5.5124572879
 C        -0.3688776403        4.9368089757        6.0251138894
 C        -0.0810542608        6.0320853318        7.1906498720
 C        -0.6389857656        7.4375265569        6.7046187738
 C        -0.4313405885        8.6606985178        7.6656513597
 O         0.4274155803        4.1143858481        5.6204453501
 O        -1.3681518689        7.5468196642        5.7138694085
 C        -0.8992905649        5.6134101496        8.3507323686
 C         1.5127339479        5.9506784560        7.5382225477
 H        -6.7906558279        0.5202856809       -3.7453807983
 H        -7.4156464780       -0.1702124538       -5.0085829258
 H        -8.1842639623       -0.7987876847       -3.6069916735
 H        -3.8998257705       -2.9111862181       -4.9697252812
 H        -3.8727963987       -4.3284524502       -3.9944159105
 H        -5.7693620307       -2.3957066594       -1.6973634161
 H        -4.6411349787       -3.4588353616       -2.5467171804
 H        -6.0788070336       -4.1791355344       -1.7967169309
 H        -8.3674386602       -2.8844222346       -4.4660669927
 H        -8.4167571696       -4.2950769471       -3.2037864083
 H        -8.3009098858       -2.6023083584       -2.6496441637
 H        -4.5284647626       -5.4919955474       -6.2479659581
 H        -3.9248605180       -4.0867421036       -7.0891265067
 H        -1.2399876747       -2.7810077364       -6.0372731308
 H         0.1112431893       -2.5309263134       -6.8920438871
 H         0.4365819360       -5.8201936733       -8.2258207152
 H         0.0276557125       -6.6117527378       -6.7125759020
 H         0.4203032263       -4.8599108851       -6.6029238630
 H        -2.3749116210       -7.2367961319       -8.3076260345
 H        -3.4980156690       -5.9325211210       -8.4623570571
 H        -2.1898745866       -6.1824186193       -9.6377794344
 H        -2.4247688450       -1.2113065934       -7.6954682956
 H        -0.9678279758       -1.1151113950       -8.6117081661
 H         1.3447850012        1.2396051888       -3.7105085010
 H        -0.2672376830        0.5103388168       -3.6901370155
 H         0.7503487387        0.0836194643       -8.6026425164
 H         1.9764990816       -0.9521803961       -7.6981440272
 H         2.1713146855        0.7603820467       -7.9223793124
 H         1.3383115232        2.4523963825       -6.3617818388
 H        -0.2974688528        2.1119303224       -7.1110210243
 H        -0.1768095961        2.1030197837       -5.2764067309
 H         1.1352399263       -1.4957480577       -2.5777694239
 H         2.3078094173       -0.0411073970       -2.0876556465
 H        -1.8885396123       -3.5805710407        0.9930812864
 H        -0.4841122411       -3.7953388939       -0.0329512801
 H        -2.2034310585        0.7195729318       -0.3866672774
 H        -3.0179395232       -0.5245832196       -1.0260420096
 H        -2.1192672130        0.4537916333       -2.1940479076
 H        -1.9497069511       -2.7025490873       -1.8137771085
 H        -1.4100410772       -1.9353138725       -3.0656413851
 H        -0.2219072026       -2.6848415953       -2.1627947431
 H         0.0951239024       -4.5301596053        1.9983340605
 H        -0.2275419727       -2.9014549721        2.8896933473
 H         3.3557683970       -0.2035475351        1.8766041442
 H         3.1826175985       -0.8894364103        3.4406719671
 H         1.4230620963       -3.6575868287        4.3077039492
 H         1.6817837505       -1.9545074943        4.1927409136
 H         2.9910779373       -2.9774795964        4.7520946926
 H         2.1745293328       -5.2793319235        2.4910978057
 H         3.5331112523       -4.7704169424        1.3727892923
 H         3.8480373533       -4.9767165038        3.1018414371
 H         5.9811803977       -0.9071974240        3.6602143544
 H         5.8747288308       -0.3188937418        1.9110069256
 H         3.6963327636        2.6079059919        4.9965739999
 H         2.2133815525        3.3901803381        4.2399115895
 H         5.6755572389        3.2101391446        4.1525199553
 H         4.7981449621        4.4813873141        3.1657110097
 H         6.2685570096        3.8052549051        2.5736070811
 H         6.1470019508        2.0355722277        1.0009105741
 H         4.6847818995        1.1952496142        0.6058986703
 H         4.9113019165        2.9521388799        0.4984430382
 H         1.7310907640        1.8520763010        6.2080100593
 H         2.6090627743        0.5032355423        5.3701570851
 H        -3.0064829051        3.4632583612        4.4204671105
 H        -2.5105342593        3.0200011207        6.2325004310
 H        -1.1825569366       -0.6410855612        4.0515127725
 H        -2.6640328507        0.3400069725        4.6519644005
 H        -1.7370979370       -0.7347452539        5.7348501783
 H         0.2867286985        0.7661569669        7.2215487281
 H        -0.4056114182        2.3932609769        7.1104897718
 H        -1.4992685661        1.0419738358        7.2958283976
 H        -1.7281911668        5.4175452596        4.5588227916
 H        -2.6233397611        5.2367452597        6.1370500957
 H         0.4475550338        9.1983768202        7.4497898200
 H        -1.3350127411        9.3459842107        7.4965678870
 H        -0.4212218083        8.1551373655        8.6082669501
 H        -0.6276986978        4.5488969666        8.5050088189
 H        -2.0091919154        5.7356774637        8.2617843205
 H        -0.6772784820        6.1009652374        9.4261136458
 H         2.1568897156        5.9719045396        6.6566579948
 H         1.8847901903        6.7766782372        8.1417377552
 H         1.6463108102        5.0285071961        8.1500959952
 Na        0.0289925453        1.3458183618        1.7347805585
