155

 C        -6.9932073925       -0.5466064885       -3.7776468494
 C        -5.9199236008       -1.5804510756       -3.8711868397
 C        -6.2911844635       -3.1046363088       -3.7024567725
 C        -5.7588808603       -3.8900715484       -4.9416214699
 C        -4.2714442438       -4.1657025590       -5.1729086760
 C        -5.6841447215       -3.7168238196       -2.3791640715
 C        -7.8615155423       -3.3990930356       -3.5976973182
 O        -4.7340965344       -1.3167807297       -4.1033615765
 O        -6.6098264082       -4.3542738786       -5.6482098352
 C        -3.9107609872       -5.0828103767       -6.3178746428
 C        -2.3825947858       -5.4027613360       -6.1518146192
 C        -1.5016402099       -5.1658554727       -7.5089487049
 C        -1.5608667228       -3.6464658085       -8.0883985878
 C        -0.8796460225       -2.6575986131       -7.1753690137
 O        -1.9578329733       -5.8983002923       -5.1363637258
 O        -1.8927123816       -3.4938567984       -9.2292677378
 C        -0.0365513852       -5.6350037398       -7.3200033075
 C        -2.0612124350       -6.1047671518       -8.6076197158
 C        -1.3521721777       -1.1368908945       -7.3960231071
 C        -0.8987069246       -0.1687880539       -6.2556535088
 C         0.5891419213        0.4976414690       -6.3293677815
 C         1.0820036056       -0.1421177355       -5.0293593546
 C         0.8098156374        0.6640048775       -3.6957748105
 C         1.3884180839        0.0471963191       -7.6093423429
 C         0.4047278077        2.0418193129       -6.4053314033
 O        -1.5275839072       -0.1087126122       -5.2495564089
 O         1.6468611620       -1.2449202014       -5.0520442393
 C         1.3178791868       -0.2221092606       -2.5187473988
 C         0.3416194475       -0.0971228045       -1.3496313089
 C        -0.8666167509       -0.9644529182       -1.1071281380
 C        -0.8794580765       -1.6130569021        0.3638739117
 C        -0.8396415761       -3.1188401336        0.6190351521
 O         0.5404215004        0.8080940808       -0.5107509741
 O        -0.7952579181       -0.8515938562        1.3025900871
 C        -2.0955374220       -0.0267758379       -1.1121995024
 C        -1.1227994631       -1.9899380423       -2.1772284792
 C         0.0820665107       -3.5763419691        1.7862169265
 C         1.5424625081       -3.1399284744        1.4064124756
 C         2.7511854735       -3.3825249659        2.4815667681
 C         3.9799641104       -2.4391831395        2.0937003012
 C         4.0167232069       -0.9225532041        2.7331397446
 C         2.2872576870       -3.3033616937        3.9724005081
 C         3.1223438236       -4.9528950633        2.3216586410
 O         1.8374594716       -2.5557082101        0.3657885263
 O         4.9385936703       -2.7724629079        1.4393134257
 C         5.3660628737       -0.4536783430        2.7957624852
 C         5.4169548193        1.0507417085        3.4858256798
 C         4.6863657201        2.2617276545        2.7470204741
 C         3.1856399703        2.3432061200        2.9427007683
 C         2.6631245709        2.7531433504        4.3240120285
 O         5.9776763153        1.1954680751        4.5618951529
 O         2.3870656628        2.2670759722        2.0278458736
 C         5.2910354461        3.6005414758        3.2585071284
 C         4.9648984039        2.0909254594        1.2531192145
 C         2.0392057057        1.6472065354        5.1532219766
 C         0.7295516960        1.0293732160        4.5463730903
 C        -0.6099823545        1.2769114022        5.2953603081
 C        -1.3470967778        2.5486274440        4.6261875400
 C        -2.4300445023        3.2794982179        5.3820337239
 C        -1.6437033640        0.2561752601        4.8060354018
 C        -0.5651706899        1.1795196529        6.8628030750
 O         0.9044788300        0.1897738671        3.6827763016
 O        -1.2287674106        2.6453919839        3.3995801340
 C        -1.9977843536        4.7726075128        5.5327136377
 C        -0.5898441183        4.8281589412        6.1391011549
 C        -0.3135753936        5.9472614723        7.2107946726
 C        -0.7200253822        7.3967552140        6.6953765737
 C        -0.4207013267        8.5237482703        7.6857781958
 O         0.2491699336        3.9951235264        5.7935373999
 O        -1.1933032969        7.4927430046        5.6193299025
 C        -1.1212841565        5.5466936337        8.5299336349
 C         1.1937214595        5.9858696502        7.5324698328
 H        -6.5748983119        0.2409382002       -3.0076280422
 H        -7.0606798100        0.1088126958       -4.6976274660
 H        -7.9637999599       -0.8792633516       -3.5690904308
 H        -3.7512536542       -3.1649668968       -5.2593594395
 H        -3.9555610401       -4.5318416560       -4.2052191506
 H        -5.8815553605       -3.0064828664       -1.5503517975
 H        -4.5332918810       -3.7505634870       -2.3836885284
 H        -6.0690783309       -4.6581957501       -2.1184591159
 H        -8.4699171899       -3.0097305393       -4.3795358382
 H        -7.9661859753       -4.4675927761       -3.6792276339
 H        -8.1354020923       -3.2575603986       -2.5689823473
 H        -4.5971383488       -5.9410435581       -6.0479473645
 H        -4.2127881088       -4.6535756151       -7.2781943640
 H        -1.1443623919       -2.9346004050       -6.0937738189
 H         0.2276466188       -2.7501582656       -7.1441928842
 H         0.5807537456       -5.4255241747       -8.2187345545
 H        -0.0296679653       -6.7197507421       -7.1819467175
 H         0.3730752689       -5.1977431264       -6.4933468683
 H        -1.4657391706       -7.0468868039       -8.7796125560
 H        -3.0924107388       -6.4418277086       -8.4172219160
 H        -2.0150870868       -5.6770500333       -9.5464088675
 H        -2.4697997456       -1.1513858700       -7.3853176593
 H        -1.0826521372       -0.8193267855       -8.4014744732
 H         1.4113807450        1.6174470828       -3.7373384406
 H        -0.2425168471        0.8555456010       -3.5596324530
 H         0.9489400377        0.4689432325       -8.4436738007
 H         1.5874744325       -1.0600997410       -7.7717844561
 H         2.3990448735        0.5385825882       -7.6157799782
 H         1.2987855776        2.4620214858       -6.6752766884
 H        -0.3769650937        2.2494702334       -7.1323282199
 H         0.0775526123        2.4336768607       -5.4437408123
 H         1.3637361676       -1.2983715062       -2.7580206593
 H         2.2380290106        0.1920853655       -2.1512967751
 H        -1.8234877982       -3.5021549013        0.7173915516
 H        -0.4218368329       -3.5471381386       -0.3078454266
 H        -2.0062736817        0.6541940530       -0.3231877095
 H        -3.0967019931       -0.5504319050       -0.8359776975
 H        -2.0817105330        0.5601024918       -2.0281921120
 H        -2.1229232786       -2.2874424889       -2.4674750362
 H        -0.8571639583       -1.6540754576       -3.2018551072
 H        -0.4103855763       -2.8597220954       -2.1361680921
 H        -0.0489374995       -4.6630074734        1.9208262669
 H        -0.2610607092       -2.9549240809        2.6273985786
 H         3.3370342126       -0.3382758694        2.0411137620
 H         3.5858243121       -0.8446706165        3.7240546880
 H         1.4452962004       -4.0280907739        4.2509727439
 H         1.9937901827       -2.2467985081        4.2137120611
 H         3.1098202484       -3.4186612346        4.6628611610
 H         2.1674132849       -5.5386629403        2.4513055465
 H         3.6054182492       -5.0765167377        1.4008042398
 H         3.8059862555       -5.2682543716        3.0781395079
 H         5.9923757878       -1.0286787939        3.4847493821
 H         5.8958956347       -0.4350940774        1.8528954304
 H         3.3667440902        3.2977198429        4.9342217401
 H         1.7775881404        3.3400302506        4.0161103796
 H         5.4542772269        3.6431469578        4.3706936419
 H         4.6888736675        4.3984128055        2.9597363833
 H         6.2845329611        3.8021522409        2.7279197952
 H         5.9037196743        1.5114019287        1.0323918289
 H         4.1997756592        1.5331464437        0.7604999438
 H         5.1269732424        3.0510093586        0.7154259616
 H         1.8258353686        2.1785542887        6.1258747621
 H         2.6026189031        0.7471567561        5.2720027549
 H        -3.3712421858        3.2383701832        4.7517775409
 H        -2.4532265524        2.8738007127        6.4150142432
 H        -1.6547220211        0.2432458055        3.7287329402
 H        -2.5707111852        0.5125154060        5.2331487943
 H        -1.3863251120       -0.7933923119        5.1524402792
 H        -0.3154468007        0.1915958403        7.2486892145
 H         0.1324939420        1.8952157858        7.4107347861
 H        -1.5926630571        1.3025971916        7.2498510775
 H        -1.9844151569        5.2058927402        4.5365933575
 H        -2.8439716273        5.1879305428        6.1176681138
 H         0.4597018136        8.9397352287        7.1845374412
 H        -1.1584074814        9.2597973785        7.5730675292
 H        -0.2338301730        8.1331091109        8.6828568071
 H        -0.9639130299        4.5353861458        8.9501095114
 H        -2.1609590735        5.7343372949        8.3200312784
 H        -0.9380357888        6.1681583134        9.3052494332
 H         1.7641890086        5.9033642751        6.5790376548
 H         1.5844707363        6.9011601436        8.0222533637
 H         1.4625135244        5.1023507991        8.1274217370
 Na        0.0984008780        1.5690708929        1.7033307360
