155

 C        -4.9827416881       -1.6552854867       -3.7019809021
 C        -5.1969665176       -3.1329109408       -3.1992672904
 C        -6.0071556529       -4.1725484280       -3.9901719367
 C        -5.3481705398       -4.3641989349       -5.4550739042
 C        -4.0769827010       -5.2846022938       -5.4542883657
 C        -6.0861904420       -5.5342382369       -3.2324666167
 C        -7.4457382666       -3.7540561765       -4.2333949342
 O        -4.5658601419       -3.4959685819       -2.1911153294
 O        -5.7522848154       -3.7576317883       -6.4254764844
 C        -3.1642681117       -4.6349526627       -6.5271211055
 C        -1.8630413922       -5.3730973456       -6.7132280869
 C        -0.8615902878       -4.7542996876       -7.7147910019
 C        -1.0703378593       -3.2993681269       -7.8168856278
 C        -0.7151030712       -2.2046382875       -6.6578943576
 O        -1.6564087385       -6.4391538650       -6.1108317508
 O        -1.4381615668       -2.8255982235       -8.8536601140
 C         0.5080075781       -5.1791935579       -7.2408291350
 C        -1.1840923728       -5.4050849052       -9.0157040120
 C        -1.4837536508       -0.8815664514       -6.8297605839
 C        -1.0166682078        0.3697426392       -6.0782930600
 C         0.4526555603        0.9767565424       -6.0656799242
 C         1.2025937769        0.4762374901       -4.8129638111
 C         0.7728088311        1.0872977170       -3.4238884946
 C         1.4489153811        0.6412787048       -7.2397406795
 C         0.2378546152        2.4727598918       -6.0146446771
 O        -1.7846118817        0.7740042352       -5.2667609706
 O         2.2038321218       -0.2133580936       -4.8851161979
 C         1.0602179710        0.0624742690       -2.2654102411
 C         0.0787231531        0.4682690380       -1.0994574291
 C        -1.2967231186       -0.2160526378       -0.8724224920
 C        -1.1264146952       -1.2849682402        0.3240510436
 C        -0.5230227187       -2.6952858407       -0.0016046274
 O         0.3620978543        1.3784515474       -0.3372914953
 O        -1.2759869050       -0.9636777089        1.5052202063
 C        -2.3181947077        0.8861507214       -0.4269316383
 C        -1.9176359327       -0.9339411592       -2.0576139970
 C         0.5053379082       -3.1119649766        1.0302177425
 C         1.9343277125       -2.5440381961        0.8219313961
 C         3.0961727375       -3.3534317110        1.3707394189
 C         4.2976368665       -2.3300852330        1.7382002549
 C         3.8958606691       -1.0172928541        2.5219575736
 C         2.8442596108       -4.0456029381        2.7550741364
 C         3.6941462532       -4.2296656840        0.1846105582
 O         2.1610170213       -1.5034048225        0.1990736557
 O         5.4546440225       -2.6763380762        1.6279310532
 C         5.1186120070       -0.1132834123        2.6787282739
 C         4.9225337333        1.1727510390        3.5731317130
 C         4.4038561597        2.5470692268        3.0167786525
 C         2.8293744801        2.3863778321        3.2032633286
 C         2.1198180760        2.7700455993        4.5220487258
 O         5.1950027457        1.1391772726        4.7357075749
 O         2.1360309568        2.0324716751        2.2929992577
 C         4.9944982962        3.7007906336        3.8334432602
 C         4.7671904348        2.6118902168        1.4696092038
 C         1.9489711688        1.4610282731        5.3340840308
 C         0.7194115957        0.6035458648        4.7352480506
 C        -0.7065536810        0.5542234878        5.4553657359
 C        -1.4796624867        1.8445196210        4.8242587518
 C        -2.4826974820        2.6235518974        5.6188897322
 C        -1.5657544192       -0.6765054621        4.9411554210
 C        -0.5778133258        0.5864435526        6.9266145618
 O         0.8714491411       -0.1032021116        3.7327595441
 O        -1.3397366157        2.0503396005        3.6525180436
 C        -2.2615697269        4.1528166503        5.6031674153
 C        -1.1633091056        4.5318555808        6.5368891539
 C        -1.2088190100        5.8697649602        7.4061422095
 C        -1.1264959225        7.1280780464        6.4027373155
 C        -0.3996607938        8.4185200320        6.8682247685
 O        -0.2138423665        3.7648956962        6.6823950931
 O        -1.7957327952        7.1182146881        5.3691224039
 C        -2.5865221404        5.9970334217        8.0541593763
 C        -0.0794031560        5.7873259068        8.4166640173
 H        -5.2352075100       -1.5957642460       -4.7771754128
 H        -5.4739748591       -0.8008088640       -3.3023118339
 H        -3.8371463069       -1.3134177830       -3.6241897052
 H        -3.7664556536       -5.1927312725       -4.4296417909
 H        -4.4353642184       -6.3139925222       -5.6578636747
 H        -7.1005290844       -5.5604913703       -2.8234951997
 H        -5.3095543846       -5.7880972967       -2.4415727269
 H        -6.0204572803       -6.3850394259       -3.8948121377
 H        -7.4434157211       -2.7955143090       -4.7877264333
 H        -8.1005508556       -4.4184016737       -4.7634759865
 H        -8.0402416534       -3.4343600558       -3.3762248341
 H        -3.7280501733       -4.5979861226       -7.4351760157
 H        -2.9731984203       -3.5320028195       -6.3160873501
 H        -0.8572998297       -2.7665843002       -5.7017641958
 H         0.3474037612       -2.0681700551       -6.8116750243
 H         1.2560352028       -4.9109969889       -8.0324613069
 H         0.6170040025       -6.2918426015       -7.3383712075
 H         0.7119816657       -4.8750739508       -6.2724610357
 H        -1.3011943811       -6.5080015480       -8.9251441412
 H        -2.0433460991       -4.9546203239       -9.5218775679
 H        -0.4149400027       -5.2945730606       -9.6844775919
 H        -2.4961016379       -0.9704993064       -6.4401852157
 H        -1.5402609892       -0.7034042818       -7.8961864372
 H         0.9800642821        2.1198123938       -3.1848799599
 H        -0.3469490595        1.0956649384       -3.3389166159
 H         1.1482237351        1.1102928889       -8.1674659545
 H         1.6696408861       -0.4713228851       -7.3701574505
 H         2.3740182995        1.2076596449       -6.9078852491
 H         1.1551339585        2.9960755093       -6.0274423954
 H        -0.3365495323        2.7568267240       -6.9091484520
 H        -0.3858258141        2.8329090516       -5.1167800674
 H         0.8282733115       -0.9294385627       -2.5091942931
 H         2.0791436022        0.2431213712       -1.8772488324
 H        -1.3276987750       -3.3829979962        0.0133026967
 H        -0.1018644881       -2.5999294785       -1.0125878155
 H        -2.0242663940        1.2499676215        0.4844804735
 H        -3.3767924441        0.5213458858       -0.2475589301
 H        -2.2324575710        1.6522865237       -1.1505725123
 H        -2.9471247929       -1.0834303240       -1.7153243662
 H        -2.0792902908       -0.2545826962       -2.8953257689
 H        -1.1713038475       -1.7599589131       -2.2626590403
 H         0.4263991649       -4.2306988823        1.2245995919
 H         0.1780731748       -2.7849214313        2.0430849588
 H         3.0017300309       -0.6648390424        2.1120881795
 H         3.6592142260       -1.4133509237        3.5533247638
 H         2.1300068670       -4.8761873329        2.5526195598
 H         2.4259994892       -3.2862095146        3.4356627964
 H         3.7852131183       -4.4145070105        3.1208087209
 H         2.8231858163       -4.7478013100       -0.2544244005
 H         4.2223409995       -3.5720550134       -0.4545102931
 H         4.5069024841       -4.8741651930        0.5475583463
 H         5.7990560594       -0.6748113962        3.3066208168
 H         5.6197723561        0.2421691754        1.7850715447
 H         2.5598526148        3.5381813700        5.1118684257
 H         1.0852221960        3.1528600813        4.2304449315
 H         5.2562822988        3.2276275361        4.8255766383
 H         4.2329995325        4.4183789880        3.9078101464
 H         5.7682988319        4.3391930209        3.3193485881
 H         5.6962988219        2.0304956125        1.3107122885
 H         3.9017984488        2.2412192191        0.9832550919
 H         5.0057430644        3.6117060341        1.1280367676
 H         1.7557638288        1.7902855143        6.4091235665
 H         2.8787310973        0.8769371044        5.3524042741
 H        -3.4377239880        2.3477900189        5.1333670028
 H        -2.4440626982        2.2579395609        6.6549717184
 H        -2.3536550714       -0.8037924341        5.6779535415
 H        -0.9148502579       -1.5222770156        4.9123679104
 H        -2.0718895656       -0.5175550541        3.9015815597
 H        -0.3882688407       -0.3344854315        7.4724275060
 H         0.2450233001        1.2455964907        7.3210596488
 H        -1.4379188018        0.9803978156        7.4754274678
 H        -1.9143138120        4.5173927851        4.5826578928
 H        -3.1775225408        4.6608068943        5.8097317237
 H         0.6830402773        8.2568036674        6.9322186747
 H        -0.7461760923        9.2532090656        6.2622668293
 H        -0.6879637095        8.5070626691        7.8842381388
 H        -3.0430310036        4.9746626379        8.2227379502
 H        -3.2806442465        6.5786768077        7.4090522808
 H        -2.5909821266        6.4728995497        9.0983710440
 H         0.8577992152        5.6751245120        7.8631701842
 H        -0.0350346805        6.7594838929        8.8988695592
 H        -0.4553541171        5.0468461029        9.1008835789
 Na       -0.0232934315        1.1794813476        1.9370213447
