155

 C        -6.9661517937       -4.8993041640       -4.8339304471
 C        -5.5872334575       -5.3743830724       -4.6336492794
 C        -4.9821478501       -6.4689413734       -5.5826438658
 C        -3.4573551007       -5.9709734463       -6.0926547520
 C        -2.7915500602       -4.9701183310       -5.2782690987
 C        -4.8977661303       -7.6728630484       -4.5985301762
 C        -5.8688989733       -6.7899965683       -6.7480025112
 O        -4.8605410177       -4.9732281098       -3.7261309864
 O        -2.9366944771       -6.5235423805       -7.0686894596
 C        -1.3987215700       -4.5943556045       -5.7582385120
 C        -1.4081786764       -3.3440285869       -6.6778011538
 C        -0.1741845397       -2.9939649686       -7.5127425718
 C        -0.1268896826       -1.4530798607       -7.9533896553
 C        -0.5786700427       -0.4813398072       -6.9538244534
 O        -2.3518583273       -2.6224099389       -6.7200890630
 O         0.2050871148       -1.1610079943       -9.1040347676
 C         1.1566358809       -3.3050495219       -6.7519650789
 C        -0.4556243701       -3.8682043524       -8.8153171821
 C         0.0695986651        0.9255941637       -6.7673175431
 C        -0.8847198646        1.8204133262       -5.8853019985
 C        -0.2664361804        3.0655176867       -5.0010961108
 C         0.4479970498        2.1302497157       -3.9618551761
 C        -0.1734481818        1.6468827830       -2.6573044170
 C         0.7317461921        3.7508348869       -5.9672215102
 C        -1.3488585021        4.0756174625       -4.4767694520
 O        -2.0634836245        1.6781992787       -5.9231146618
 O         1.5715880864        1.7748101896       -4.2638855678
 C         0.6538056544        0.9476420389       -1.5700219219
 C        -0.2838983163        0.6715022732       -0.3763424722
 C        -1.3523492542       -0.4398069270       -0.1580793895
 C        -0.4959358215       -1.4937024278        0.7416960765
 C        -0.1108887374       -2.9309008847        0.1184036021
 O        -0.1229488916        1.4721598022        0.4902049075
 O        -0.3978871849       -1.3176956656        1.9346949183
 C        -2.5322362130        0.0774473700        0.7209172117
 C        -2.0079266514       -1.0814556444       -1.3794814450
 C         1.2500969086       -3.3853099948        0.5658810613
 C         2.2911514093       -2.3420582644        0.3438822977
 C         3.7743445590       -2.7684711122        0.3983130248
 C         4.5310098096       -1.4512027666        0.8938011276
 C         4.0149781956       -0.7460438234        2.1033732063
 C         4.0779876474       -3.9352707211        1.2304021291
 C         4.2508640047       -2.9540852983       -1.0743234927
 O         1.9259114524       -1.2337500251       -0.1123431138
 O         5.5324837523       -1.0860733335        0.3252607988
 C         5.1570928296        0.0566588017        2.8091619754
 C         4.8812130706        0.8138649004        4.1082587304
 C         4.3684972997        2.3857219446        4.1226450890
 C         2.8370288199        2.2973587787        4.1077049628
 C         1.8959697185        2.4213349751        5.3341125765
 O         4.8820783534        0.2729148126        5.1454573756
 O         2.2704819679        2.0764515277        3.0691917948
 C         4.9070907444        3.0119129050        5.3532505225
 C         5.0320709214        3.0237189491        2.8254088005
 C         1.8625145178        1.0665234861        6.0404094304
 C         0.8888203462        0.0140438784        5.4744522627
 C        -0.5705437013       -0.1569336591        6.1002518836
 C        -1.5253036862        0.9844099953        5.6399821645
 C        -2.7071905630        1.3128462937        6.5297139780
 C        -1.1979900661       -1.3370122960        5.3655982059
 C        -0.5695080613       -0.3684659170        7.6532038226
 O         1.0984860705       -0.5402458879        4.4223231262
 O        -1.4944913993        1.4398515406        4.4592276128
 C        -3.3320432587        2.6885034910        6.0163523282
 C        -2.4523821251        3.8739871217        6.5450579511
 C        -3.0293690750        5.3234571472        6.3011589257
 C        -2.4559041206        5.7061383047        4.8359214660
 C        -3.0280797415        6.9912502598        4.2761935032
 O        -1.3825890359        3.7073272734        7.0827180378
 O        -1.6265818651        5.0028679593        4.3177855500
 C        -4.5972906518        5.3020660534        6.2904853112
 C        -2.4112753368        6.2666024009        7.2992316152
 H        -7.3498038542       -4.5695823626       -3.8477449028
 H        -7.0444426298       -4.0333123727       -5.4912069365
 H        -7.6632031035       -5.7357026670       -5.2357722572
 H        -3.2803715106       -3.9719346999       -5.3303871890
 H        -2.8337517295       -5.3271373440       -4.2743051455
 H        -5.7163474439       -8.3082735991       -4.6948659047
 H        -4.9406932365       -7.4469774704       -3.4874811691
 H        -3.9598361323       -8.2123046445       -4.7456465882
 H        -6.1609325485       -5.8716286032       -7.2839524034
 H        -5.2969540485       -7.4549380246       -7.3386662683
 H        -6.7778702316       -7.2057984015       -6.3593048575
 H        -0.8019260916       -4.3084288914       -4.8757057275
 H        -0.8678587653       -5.3108647812       -6.4004080469
 H        -1.6076958570       -0.1996494905       -7.2318455370
 H        -0.7418652892       -0.8851500015       -5.9360995503
 H         2.1206912400       -3.2437722130       -7.2997741939
 H         1.1209123491       -4.4237730553       -6.6011975528
 H         1.1542363902       -2.8093366089       -5.8306409892
 H        -0.4753705015       -4.9256178132       -8.5096863671
 H        -1.4141821823       -3.4272632496       -9.1102426728
 H         0.2165379964       -3.7287209064       -9.5917643557
 H         0.2714720517        1.5098917806       -7.7234556762
 H         1.0965588506        0.9367489778       -6.2524571260
 H        -0.7367517220        2.5737778867       -2.3523076825
 H        -0.9717207848        1.0084441998       -2.9933262250
 H         1.1020060135        4.7969781133       -5.5914978841
 H         0.1186194449        3.8909536822       -6.8412886261
 H         1.5256655539        3.0577889948       -6.2142851419
 H        -0.9436645891        4.6547732537       -3.7085331634
 H        -1.6708464512        4.6169322545       -5.3368744413
 H        -2.2278784277        3.4816444694       -4.1467812604
 H         1.1919041446        0.0895944603       -2.0029100236
 H         1.4724771707        1.5660772366       -1.1314238408
 H        -0.8755705969       -3.6104573999        0.4907429897
 H        -0.1613725438       -2.9378697431       -0.9476609634
 H        -2.1938886971        0.1933453769        1.8263817699
 H        -3.2224532299       -0.7188509537        0.7406664434
 H        -2.8042580535        1.0719335058        0.2875961701
 H        -1.3425072823       -1.4555974119       -2.0966411850
 H        -2.6521087800       -1.8509748790       -0.9920948038
 H        -2.6993058988       -0.3491885707       -1.7026679619
 H         1.4827435260       -4.3558127694        0.1097043958
 H         1.2795654037       -3.6374604495        1.6818669100
 H         3.1920829819        0.0279532571        1.9010659867
 H         3.5800165197       -1.4620430293        2.7643616237
 H         3.7071339541       -4.8356670905        0.7669723151
 H         3.5620266383       -3.7882493988        2.1783607489
 H         5.0874957372       -4.0396429194        1.3613819160
 H         3.5414625304       -3.5385157310       -1.6257216246
 H         4.4103541808       -2.0216565921       -1.5861556371
 H         5.2369791983       -3.4506378063       -1.2268704957
 H         5.8348517241       -0.8181829732        2.9583325215
 H         5.6366927986        0.7032014543        2.1127756827
 H         2.0647640114        3.2334819334        6.0610576523
 H         0.9471451572        2.7936343753        5.0469941083
 H         4.8749112794        2.2481737948        6.1670784856
 H         4.4251509453        3.9106419694        5.6205406965
 H         6.0076385650        3.2577989205        5.1204703359
 H         6.0769192422        2.7172220396        2.6439334173
 H         4.4654466034        2.7918752139        1.8951239642
 H         5.0891180459        4.0869632329        2.7591572631
 H         1.5939686174        1.2543776339        7.0891984408
 H         2.8882903835        0.6677586006        5.9282626276
 H        -3.4878276972        0.6285146108        6.3651029297
 H        -2.4246904358        1.4980215271        7.5554666082
 H        -0.4375763548       -2.0561548716        5.2124271873
 H        -1.6535283410       -0.9837865819        4.4126503602
 H        -1.9872420009       -1.7767819179        6.0662722743
 H         0.0566458275       -1.2420109719        7.7656111640
 H        -0.4228277838        0.5007750297        8.2150006555
 H        -1.5925063845       -0.7229206230        7.8410388720
 H        -3.3805418857        2.7840430030        4.9566068689
 H        -4.3852527827        2.7081575297        6.4136622705
 H        -3.7386789193        7.4428893402        4.9601071497
 H        -2.2462126937        7.8352140274        4.1290250249
 H        -3.4201970801        6.8289709926        3.3027390413
 H        -4.9667279198        5.0869400504        7.2146980345
 H        -5.0026671284        4.5654939823        5.6588651775
 H        -4.9978416342        6.2591605544        6.1625955250
 H        -1.4906514227        6.7810307399        6.9185799877
 H        -2.9266913749        7.1281444628        7.5818965816
 H        -2.1842862517        5.7880065401        8.2295477929
 Na        0.0113359951        0.8678634864        2.7098139497
