155

 C        -5.8132511166       -5.4991121860       -6.8437768777
 C        -5.2084109537       -6.2030588180       -5.6234406004
 C        -3.9222610371       -7.1249150562       -5.8912396734
 C        -2.7919722309       -6.1722473074       -6.2736500528
 C        -2.7232755115       -4.7966664387       -5.5049028783
 C        -3.5437673443       -7.8649698898       -4.6196019774
 C        -4.2425365892       -8.1552899071       -7.0969620840
 O        -5.6561685852       -6.0942828096       -4.5002718527
 O        -1.7944242941       -6.5262315790       -6.9260246645
 C        -1.4495115380       -4.0684759097       -5.7982164780
 C        -1.5897783639       -2.8372074477       -6.7597212111
 C        -0.3431616341       -2.0868849254       -7.2547681837
 C        -0.2819108612       -0.6756307507       -6.7358975163
 C        -1.5874225590        0.1130377609       -6.5138500017
 O        -2.7021820081       -2.4941097774       -7.1879539695
 O         0.8048752558       -0.2148840861       -6.4934461332
 C         1.0035135748       -2.8283310656       -6.8912812064
 C        -0.2631115159       -2.1301146778       -8.7818362470
 C        -1.4361721623        1.6981729520       -6.1929178823
 C        -1.1437571135        2.1228991951       -4.7285640232
 C        -0.2728822529        3.3691816421       -4.5040197798
 C         0.5179822291        3.1347958178       -3.1895714369
 C        -0.0388051052        2.6682221760       -1.8125275527
 C         0.6521374790        3.7150608268       -5.6732122422
 C        -1.3641164352        4.5258119794       -4.4014511085
 O        -1.7305375085        1.5316319194       -3.8198724861
 O         1.6769025646        3.4444970779       -3.2230216455
 C         0.1047506239        1.0816684713       -1.7249214502
 C        -0.4430838402        0.6390901431       -0.3821926726
 C        -1.3893101186       -0.6371213898       -0.2488691345
 C        -0.5505048145       -1.7712390565        0.2856141594
 C         0.1442932929       -2.7522998456       -0.6381416186
 O        -0.2203012872        1.3175999345        0.5941255625
 O        -0.2771369300       -1.8149767589        1.5228582349
 C        -2.4620771083       -0.3021868269        0.8557333342
 C        -1.9680559896       -0.9770663048       -1.6712546015
 C         1.4888387361       -3.2651709540        0.0608873768
 C         2.5801730352       -2.2137996927       -0.1557414693
 C         4.0744536144       -2.6606746891        0.3255968148
 C         4.8989418697       -1.5313118988        1.0154760737
 C         4.3137280916       -0.6599618568        2.1913825316
 C         3.9560747808       -3.7806683674        1.4407594559
 C         4.7039085689       -3.2978462433       -0.9299441504
 O         2.4794772186       -1.0986435659       -0.5896158001
 O         6.0110742322       -1.2289725687        0.6381596249
 C         5.3744226969        0.0246334702        3.0892671293
 C         4.5909023363        0.9312964941        4.0840181461
 C         3.9839828899        2.3532662442        3.8119131061
 C         2.4165042720        2.0361766551        3.9076738568
 C         1.5918015130        2.2716079464        5.3119492327
 O         4.4970085753        0.4922188852        5.2503832730
 O         1.8609344060        1.5833069083        2.9228441595
 C         4.4576368927        3.2282815234        5.0214045895
 C         4.4644189156        3.0584278745        2.5295429484
 C         1.6770345175        1.0939331004        6.2307586637
 C         0.8575515447        0.0035051202        5.5341946631
 C        -0.5298987518       -0.4184413946        6.0754679505
 C        -1.5455580446        0.6737697827        5.6200889096
 C        -2.4904270026        1.2182981289        6.5744118736
 C        -1.0241000060       -1.7707631779        5.4207759329
 C        -0.5406679195       -0.4524862413        7.7118904863
 O         1.3015393368       -0.4292184319        4.5004315343
 O        -1.6078780155        0.9035949456        4.4166843535
 C        -3.4347734486        2.3304453302        6.0984981915
 C        -2.8538365103        3.7168115897        6.4218414099
 C        -3.4234920211        5.1109083158        5.7459943953
 C        -3.1899684114        5.1185271229        4.2300482091
 C        -3.2497527595        6.4828598797        3.4500152731
 O        -1.9187599052        3.8185756957        7.1492803641
 O        -2.8835743297        4.0918227289        3.7207549985
 C        -4.8947591944        5.0289255484        6.1860012617
 C        -2.6879974801        6.1420431668        6.5146971026
 H        -6.9524444303       -5.5495910279       -6.8283319667
 H        -5.5491640478       -4.4695565568       -6.8888323820
 H        -5.5351330174       -5.9534122003       -7.6971213182
 H        -3.6712870194       -4.2387000116       -5.5928350486
 H        -2.7039649551       -5.1171945938       -4.4834340411
 H        -2.5339503702       -7.5769300248       -4.3497922007
 H        -3.6421132897       -8.9127265899       -4.7320273893
 H        -4.1484792070       -7.6700749702       -3.7533559117
 H        -5.1822094215       -7.7821791206       -7.5666738798
 H        -3.2920136970       -8.1744637586       -7.6655859011
 H        -4.3431808616       -9.1261018107       -6.5782545070
 H        -0.8689709168       -3.6230058266       -4.9807840414
 H        -0.7854103945       -4.8966075064       -6.1581095673
 H        -2.1539709456       -0.0210184061       -7.4168082516
 H        -2.1723731058       -0.3480739975       -5.7054686585
 H         1.7824873302       -2.1946472070       -7.0984653384
 H         1.1463273464       -3.6473580567       -7.5213089169
 H         1.0433837201       -3.1543913145       -5.8188326260
 H        -0.5437521148       -3.1544509820       -9.0803613827
 H        -0.9674311474       -1.5091432478       -9.2382483084
 H         0.7931383928       -2.0194710210       -9.1547436419
 H        -2.3155235158        2.2169659758       -6.4625716808
 H        -0.6731634681        2.0318780308       -6.8100598797
 H         0.5467071210        3.1545596160       -1.0223850198
 H        -1.0579481495        2.8420649731       -1.7440282032
 H         1.0528235121        4.6003052765       -5.4549507783
 H         0.0423237058        3.8671785152       -6.5637687182
 H         1.3517567795        2.9047665396       -5.8616506187
 H        -0.8787867195        5.5202017287       -4.1537689345
 H        -1.8686202835        4.5712743054       -5.3712669847
 H        -1.9721975068        4.3978085376       -3.5640177374
 H        -0.3206721071        0.5408188433       -2.5556780668
 H         1.1798469224        0.8909971640       -1.8814842100
 H        -0.6009252346       -3.5077066642       -0.9645444784
 H         0.4455907235       -2.2020975637       -1.5538554022
 H        -2.1040592004        0.2693415604        1.6240131942
 H        -2.7962364041       -1.3115437267        1.1853808568
 H        -3.2431241227        0.2406396037        0.4251633808
 H        -1.3310821216       -1.6459723793       -2.2828153934
 H        -2.9058697197       -1.5075410160       -1.5279255145
 H        -2.2678807415       -0.1477482758       -2.3517764592
 H         1.8605355662       -4.1038036230       -0.4654941990
 H         1.2940563613       -3.4217116055        1.1051004866
 H         3.7278998775        0.1168505055        1.6401604813
 H         3.7124882767       -1.0587530598        2.9640736180
 H         3.4175457669       -4.6650658261        1.0450226511
 H         3.4018464838       -3.3595576134        2.2596689246
 H         4.9858035807       -4.0481374513        1.8687924199
 H         3.9170487821       -3.8846144664       -1.4951109848
 H         4.9352905195       -2.5335069991       -1.6704855729
 H         5.6071055518       -3.8189600421       -0.6574635914
 H         5.9139703222       -0.6182334091        3.8179509904
 H         6.0570881462        0.5794058431        2.4515501539
 H         2.0329062867        3.0860951145        5.7898408503
 H         0.5309606069        2.3577117282        4.9739178486
 H         4.5468890408        2.6152731595        5.8966298700
 H         3.8524237354        4.1776823060        5.1196560016
 H         5.4021112431        3.6208944684        4.7288782792
 H         5.5422944802        2.9948513686        2.4689214104
 H         4.1463530839        2.4924148506        1.6517707258
 H         4.0621232877        4.1323461584        2.5283180400
 H         1.3239804207        1.3241763570        7.2823908568
 H         2.6996602823        0.7563874707        6.3862036205
 H        -3.0329700836        0.4020454098        7.1347047530
 H        -1.8922422212        1.6352189175        7.4530876994
 H        -0.4342048127       -2.5910854673        5.9257601626
 H        -0.8534227533       -1.6912995453        4.3366267331
 H        -2.0374083176       -1.9642798719        5.5502802902
 H         0.3995834900       -0.9299086227        7.8714274603
 H        -0.5350133440        0.6562626656        7.9489375480
 H        -1.4310682511       -1.0185162861        7.9796146028
 H        -3.5951819685        2.1412917348        5.0579502458
 H        -4.4383888833        2.1927822549        6.5698249904
 H        -2.2419873329        6.9181066458        3.3441307181
 H        -3.5729736380        6.2866408205        2.4841329857
 H        -3.7695893745        7.3294584453        3.9969553239
 H        -5.3978183527        4.2336534019        5.5867769016
 H        -5.3536416254        5.9998858687        5.8674263561
 H        -4.8372060934        4.7663843875        7.3313093316
 H        -2.7355956268        5.9497628412        7.5448464954
 H        -1.5805702225        6.0571218656        6.3688001753
 H        -2.8002164895        7.1736553465        6.1247697125
 Na       -0.0478982033        0.2316326025        2.7371553280
