155

 C        -3.3058735113       -8.5297054205       -8.8631612657
 C        -3.3498690287       -7.3412671811       -7.8729659635
 C        -2.3124293007       -7.1240048112       -6.7039532232
 C        -1.3541954482       -5.9217597982       -7.0135980669
 C        -1.9568499914       -4.6035943544       -7.4300973824
 C        -3.0610094511       -6.6222430142       -5.3756362058
 C        -1.3406861873       -8.3129502986       -6.5055476343
 O        -4.2166291736       -6.4933481771       -8.0769409701
 O        -0.1774475403       -5.9470585430       -6.8176115821
 C        -1.2643997107       -3.5451892773       -6.5399171602
 C        -1.7719607174       -2.0854966687       -6.6441331531
 C        -0.8042617550       -0.7494571646       -6.6780168580
 C        -0.9683981773       -0.2469005924       -5.2677116914
 C        -1.8719582202        0.9516695002       -4.8801152820
 O        -2.9103055916       -1.8154016847       -6.7746396044
 O        -0.3373117645       -0.7675574999       -4.3812769244
 C         0.7109840820       -1.0565051861       -6.9112750413
 C        -1.1732922304        0.1326435933       -7.9219556070
 C        -1.0618710530        2.2898421596       -5.2016381878
 C        -1.8307012361        3.4922998503       -4.7144699500
 C        -1.0670131143        4.4248096035       -3.6247077419
 C        -0.2455311899        3.5632406026       -2.6448675696
 C        -0.9767305341        2.7220226084       -1.5581534410
 C        -0.1111044265        5.3736981776       -4.4248552777
 C        -2.2004338160        5.2253198011       -2.9573407661
 O        -2.9420074810        3.7328037208       -5.0250189403
 O         0.9952209447        3.5226647282       -2.6735958018
 C        -0.4589024893        1.2336971386       -1.5691530521
 C        -0.9780867940        0.5342915203       -0.3230696348
 C        -1.2643598644       -0.9986203678       -0.2666214785
 C        -0.0158693534       -1.7815426510        0.3086525078
 C         0.8014456167       -2.7386855482       -0.5746383621
 O        -1.1377965607        1.1201545220        0.7694245433
 O         0.2135517881       -1.6742468407        1.4864020075
 C        -2.3789575599       -1.0656937588        0.8299059563
 C        -1.8443440662       -1.4974962090       -1.6406951433
 C         2.0725016492       -3.3558705232       -0.1002303557
 C         3.1440645873       -2.2379754628        0.3353847044
 C         4.5420597040       -2.6778321246        0.9417492252
 C         5.2610527305       -1.3634519879        1.5636423606
 C         4.4249830991       -0.6904908980        2.7041128976
 C         4.3009701247       -3.7354871807        1.9682837113
 C         5.3986272440       -3.1877061904       -0.3228107636
 O         2.9130377599       -1.0881639562        0.0106084545
 O         6.3091562134       -0.9983773562        1.0961347578
 C         5.2935354856        0.1967688903        3.7023937837
 C         4.6346869172        1.2520380553        4.5583398423
 C         3.7340265606        2.4238667828        3.8213537527
 C         2.2158401859        1.9745850154        3.9973727169
 C         1.4176983124        2.0309214135        5.2143924076
 O         4.7357054222        1.2559536277        5.7776235294
 O         1.7881043527        1.4403122055        2.9709214500
 C         4.1263677708        3.7202141978        4.5396891142
 C         4.1545003956        2.5693599253        2.3487774703
 C         1.6027605139        0.8369143098        6.1819936166
 C         0.7781639846       -0.3082217387        5.6350272274
 C        -0.6059611263       -0.8111928132        6.1735534610
 C        -1.8732704967        0.1153634972        5.6241323272
 C        -3.0096973280        0.5431690946        6.6130912413
 C        -0.8213549634       -2.2388677360        5.6562681196
 C        -0.6829412822       -0.6199942492        7.6790587055
 O         1.2718327969       -0.9593955113        4.7362535962
 O        -1.8176826036        0.3332574298        4.4442024439
 C        -3.8638710502        1.5826845707        5.9447919225
 C        -2.9800128368        2.8627521099        5.5873111578
 C        -3.6166593566        4.1167607481        4.9781858111
 C        -4.5470810610        3.7560709178        3.8123534508
 C        -4.4584501340        4.5449359239        2.5052673600
 O        -1.8494939311        2.9718726632        5.9828181231
 O        -5.4284744373        2.9141078349        3.9448909127
 C        -4.5881033013        4.7483269828        6.0360824464
 C        -2.5265616392        5.0112303897        4.5071018613
 H        -2.3412494677       -8.6030397168       -9.4548100094
 H        -3.3938591385       -9.5686706627       -8.3259668663
 H        -4.1003836148       -8.4311553799       -9.5991882048
 H        -1.9425022810       -4.3599794192       -8.4929475073
 H        -2.9983244970       -4.6185550881       -7.1250608588
 H        -3.9137753357       -5.9684591632       -5.6825952577
 H        -2.3732472523       -6.2073961555       -4.7512762743
 H        -3.5914517545       -7.4149138927       -4.7610779760
 H        -1.6629519649       -9.3118408816       -6.8041503824
 H        -0.3629252854       -7.9560188725       -6.9450515733
 H        -1.1423698863       -8.3826698545       -5.3943216198
 H        -1.3478029746       -3.7445782740       -5.4857531912
 H        -0.1242069980       -3.5520602421       -6.7337133234
 H        -2.8390804628        1.1140962356       -5.4240261843
 H        -2.1217388080        0.7435133001       -3.8222390717
 H         1.2344818281       -0.1609774998       -6.4752614626
 H         0.8938240188       -1.0539823094       -7.9923661460
 H         1.2649850779       -1.7959558983       -6.3907220392
 H        -1.2159233001       -0.5395670682       -8.7330071635
 H        -2.1765597888        0.5392209689       -7.8640263824
 H        -0.5285393232        1.0367114428       -8.1843081571
 H        -1.1655461645        2.1630651248       -6.3062346537
 H         0.0273323130        2.2263778366       -4.8976767140
 H        -0.6555047480        3.0484810684       -0.5330935490
 H        -2.0573030540        2.7624878003       -1.8290103539
 H         0.4800656051        6.0967569861       -3.7024265698
 H        -0.6603245885        5.8539945852       -5.2222407817
 H         0.6866927225        4.8377511546       -4.9235822572
 H        -1.9378642203        5.9432535516       -2.1915033027
 H        -2.8065913122        5.6828150857       -3.7201588491
 H        -2.9354562785        4.5228945424       -2.3602971229
 H        -0.8078948252        0.5857846121       -2.3773490583
 H         0.6509491274        1.1821975156       -1.6225484607
 H         0.1270643775       -3.6385153442       -0.6553346195
 H         0.9678985292       -2.3314730227       -1.5521724452
 H        -3.1355504263       -0.1606719805        0.8741708805
 H        -1.9762737054       -1.0038721500        1.8096947333
 H        -3.0285088914       -1.9872709743        0.7687783136
 H        -1.0956254210       -1.8974964447       -2.3668050156
 H        -2.3533884808       -2.4353196699       -1.2764186579
 H        -2.5486335639       -0.7005652064       -1.9783594233
 H         2.5922377000       -3.8328049795       -0.9392397919
 H         1.9099444037       -4.0984615322        0.7695139204
 H         3.6242353969       -0.0356381777        2.2666653759
 H         3.9533429359       -1.3879994169        3.2881373622
 H         4.1184201181       -4.7495723313        1.6362106132
 H         3.5681797611       -3.5798706202        2.7378193895
 H         5.2757062730       -3.8374304565        2.5102591095
 H         4.8921224373       -4.0979722008       -0.7129890979
 H         5.2653779340       -2.5118566170       -1.1766957628
 H         6.3938225268       -3.3917400138       -0.0322454570
 H         5.9072617031       -0.4406753080        4.4222600767
 H         6.0665766844        0.7135486552        3.1628627141
 H         1.6293551077        2.9300731067        5.7505504819
 H         0.3109437193        2.1367689371        4.9172195747
 H         5.1843079866        3.8379305427        4.5442433135
 H         3.6509453993        3.7391498595        5.5584518395
 H         3.6610831495        4.6153620465        4.1753260562
 H         5.1329657400        3.0255334666        2.4514727191
 H         4.1320394887        1.6915880664        1.7922738901
 H         3.5153298826        3.2925056599        1.7925039130
 H         1.2681657145        1.1529108430        7.2016255277
 H         2.6287463091        0.4913363457        6.2241037161
 H        -3.5372600444       -0.4055806722        6.7458798801
 H        -2.6048863493        1.0486611860        7.4878358902
 H        -0.3078172778       -3.0045417290        6.1754462924
 H        -0.5911402213       -2.4037213267        4.6443145129
 H        -1.8918370234       -2.5820350025        5.5849907270
 H         0.2409745001       -0.9348440141        8.2182792214
 H        -0.8955911352        0.3731095246        7.9914199050
 H        -1.4909125622       -1.2318594865        8.0868829144
 H        -4.4324986799        1.2828114953        5.1241912812
 H        -4.6009658108        2.0218815084        6.6541546830
 H        -3.7637162508        5.3749526818        2.4044417915
 H        -4.2909373480        3.9103516034        1.6693480392
 H        -5.4013326599        5.0934375256        2.5837053926
 H        -5.4365690784        4.1060473302        6.2475052037
 H        -4.9748778636        5.6248637317        5.7282629131
 H        -4.1167502237        4.8930519984        6.9594611391
 H        -1.7955783445        5.1502452213        5.3426153179
 H        -2.0810913624        4.4116085826        3.6416402082
 H        -2.8207986908        5.9761482247        4.0646633824
 Na       -0.2290156932        0.2262430129        2.9048431740
