155

 C        -2.3965365986       -8.5393235469       -9.1228055693
 C        -2.7474633674       -7.3922938756       -8.1918719102
 C        -2.2142293060       -7.2287481158       -6.7562788218
 C        -1.2826249451       -5.8866970696       -7.0697481237
 C        -1.9584488007       -4.4263078040       -7.1322409138
 C        -3.2052406136       -6.7750744136       -5.6575131755
 C        -1.2328016336       -8.2617206212       -6.2428406260
 O        -3.6269412954       -6.5517776162       -8.5720833499
 O        -0.1269555886       -6.0803797252       -7.2862106808
 C        -1.0494712191       -3.3094874785       -6.4985267326
 C        -1.6502157448       -1.9384733903       -6.9219407466
 C        -0.7326104834       -0.6592454511       -6.8567606947
 C        -0.9742910629        0.0415193373       -5.4383021940
 C        -1.8942414896        1.2988609589       -5.2742467373
 O        -2.8794071501       -1.8901308262       -7.0514163628
 O        -0.5969791277       -0.4489891466       -4.3964460105
 C         0.7785765311       -0.8766635663       -7.1721051125
 C        -1.3756023573        0.2846522113       -8.0795319409
 C        -1.0916193742        2.6507049129       -5.3941123367
 C        -1.9541265882        3.6771135620       -4.6115241393
 C        -1.2091140763        4.5218026927       -3.4783522090
 C        -0.6282417547        3.5088856864       -2.4727203591
 C        -1.5515488407        2.5415819650       -1.7493229737
 C        -0.1306944270        5.3419250946       -4.2326173488
 C        -2.2621568851        5.3918849508       -2.7427537775
 O        -3.0629089414        3.8997266690       -4.9675015649
 O         0.6100089269        3.3654202056       -2.3453917114
 C        -0.6705413308        1.3268373980       -1.2711700427
 C        -1.0539354128        0.4819949560       -0.0758210767
 C        -1.1694680570       -1.0211202071       -0.2020165036
 C         0.1386398359       -1.7430902407        0.3181491035
 C         0.9408495423       -2.6124250566       -0.6390855102
 O        -1.0443195447        0.9862772796        1.0509608737
 O         0.5597807882       -1.5667519723        1.4395402697
 C        -2.1230183858       -1.4730870545        0.9470905289
 C        -1.6646146578       -1.5133685894       -1.5537736612
 C         2.0897790267       -3.2942733232        0.0315921215
 C         3.0914892259       -2.1106460972        0.5068761477
 C         4.4848216300       -2.6019968633        1.0451806925
 C         5.1922324663       -1.4989262169        1.8132157063
 C         4.3240577602       -0.8442213805        2.8939128730
 C         4.3336776832       -3.8093906276        2.0453654359
 C         5.3385282739       -2.9417259069       -0.2641612046
 O         2.8851483833       -0.9700718618        0.1622608465
 O         6.2626816781       -1.0365827934        1.5346945982
 C         5.1906266361        0.2884063008        3.5842328367
 C         4.4389063449        1.2805798715        4.4395825577
 C         3.5837950168        2.4528086898        3.8314898198
 C         2.1574156435        1.9780032432        3.9258384058
 C         1.3291098929        2.1838258595        5.1641227064
 O         4.4978801960        1.1951574743        5.6725985238
 O         1.6774344621        1.4244163258        2.9514730630
 C         4.0114747367        3.7372100920        4.6250283278
 C         3.8617840782        2.7132969964        2.3411651552
 C         1.2592934800        1.0568354536        6.2977950672
 C         0.7081092705       -0.3289956251        5.7502330617
 C        -0.5553573918       -0.9587808561        6.3694501432
 C        -1.6411193911        0.0185080266        5.6803647502
 C        -2.8486731105        0.4282748718        6.5588248953
 C        -0.9237288950       -2.3900770585        5.6537883098
 C        -0.4984597606       -0.9951389450        7.9024819727
 O         1.2602583977       -0.7372097929        4.7537086617
 O        -1.5429490443        0.4066213594        4.5687482578
 C        -3.7029478952        1.3583269080        5.6830458746
 C        -3.0236315353        2.7775271463        5.5918968442
 C        -3.7031294618        3.9899911772        4.8823649990
 C        -4.7462727509        3.5283637276        3.8300603763
 C        -4.5875191817        4.1948400883        2.4118108656
 O        -1.9125217862        2.9332589102        6.0427009563
 O        -5.5381446252        2.7007260839        4.1513447898
 C        -4.6010188360        4.8225864902        5.8885513293
 C        -2.4646794330        4.7359483687        4.1799155605
 H        -1.7159493998       -8.2701505054       -9.9974480840
 H        -1.7732316451       -9.3084072184       -8.6124400519
 H        -3.2394364255       -8.9335616654       -9.5537973410
 H        -2.2198955253       -4.2427976378       -8.1878323446
 H        -2.9182081543       -4.3515782975       -6.6528365561
 H        -3.5231710387       -5.7754567062       -5.9451357440
 H        -2.7811974245       -6.7111564149       -4.6918515134
 H        -4.0561942391       -7.4809501838       -5.5642453563
 H        -0.5087036304       -8.6547641725       -6.9196874097
 H        -0.5299659763       -7.7731648616       -5.5144817764
 H        -1.7509555345       -9.1456691189       -5.8472254769
 H        -0.9256685715       -3.4253925881       -5.4442570651
 H         0.0331669896       -3.4569275951       -6.8247561600
 H        -2.7933213065        1.3150325294       -5.8482048945
 H        -2.2559069159        1.3441822493       -4.2855622685
 H         0.9519335177       -0.0282689000       -7.8451125238
 H         1.0204526083       -1.7345616714       -7.7634612648
 H         1.4437529352       -0.8701309965       -6.4128519123
 H        -0.9887936729        0.0437143370       -8.9988283676
 H        -2.4328612974        0.0897777708       -8.2695839406
 H        -1.1880174329        1.3970566078       -7.9624868723
 H        -0.9754178785        3.1083974063       -6.3863507549
 H        -0.1204215525        2.5048101102       -4.8810613664
 H        -2.1375295660        3.2165991796       -1.0190989524
 H        -2.4088558290        2.1181208976       -2.4265525316
 H         0.4500867870        6.0015834824       -3.5492086865
 H        -0.4846032366        5.8680004159       -5.0598735140
 H         0.6136857163        4.6419987814       -4.5041995147
 H        -1.8694498672        6.1362620814       -2.0708113457
 H        -2.7350457950        6.0703532716       -3.4407942130
 H        -3.0632291802        4.6898321255       -2.2863757625
 H        -0.2903795706        0.7162949859       -2.1292691539
 H         0.2452065386        1.8264900669       -0.8776211526
 H         0.3481476662       -3.4802858653       -1.0723361200
 H         1.3054640139       -2.0436461348       -1.4878232358
 H        -3.1908093806       -1.2874033852        0.7212914970
 H        -2.1070914273       -0.8234154861        1.7648540400
 H        -1.8881923634       -2.4984796546        1.3077532378
 H        -0.8535565851       -1.4409365510       -2.3559606546
 H        -2.0389344064       -2.6037982780       -1.3408880145
 H        -2.3903716346       -0.6998298895       -1.8081408166
 H         2.5759667198       -3.8885561604       -0.7206288246
 H         1.6913616227       -3.8123316681        0.9478145173
 H         3.3123875891       -0.4548207538        2.6075967520
 H         4.1301568581       -1.5800887292        3.5810836909
 H         3.9489130783       -4.6769971953        1.6145580378
 H         3.6400974647       -3.6611024406        2.8606391316
 H         5.2559923853       -4.0201236089        2.5371049829
 H         5.9528946336       -3.8587857169       -0.2744821564
 H         4.5398149628       -3.1915438782       -1.0090170732
 H         5.7409625080       -2.0473169319       -0.6544313632
 H         5.9713420510       -0.1855876756        4.3130378040
 H         5.8355848744        0.7975736586        2.8119702771
 H         1.6325114349        3.0613408702        5.6264367821
 H         0.3105806872        2.5819231103        4.9224944994
 H         4.6082936923        4.5178469796        4.1950446887
 H         4.5551448240        3.3845748748        5.5238621843
 H         3.1477465567        4.2965645617        5.0015602208
 H         4.9816664086        2.7530610656        2.2611232823
 H         3.4850821699        1.9151841832        1.6503203513
 H         3.5130737427        3.6692976992        1.9995233376
 H         0.6821530714        1.4602152202        7.1375351386
 H         2.1694845065        0.8767289790        6.7817585134
 H        -3.5179185123       -0.4162420957        6.7788855614
 H        -2.3757686529        0.8475537475        7.4493126471
 H        -0.2430204775       -3.0100649964        5.2369707088
 H        -1.4475580220       -2.2095246593        4.7757838016
 H        -1.6439149240       -3.0351866378        6.2284030532
 H         0.2888231320       -1.5963206012        8.4127947832
 H        -0.3026810346       -0.0627271428        8.2730299284
 H        -1.4475727539       -1.2998418955        8.3276680821
 H        -3.7686206921        0.9494213943        4.6708611432
 H        -4.8043658868        1.3218542204        5.9683208688
 H        -3.7380806472        3.7570703043        1.8471797771
 H        -5.4516794157        3.9270461730        1.7492887493
 H        -4.4491344974        5.2490425309        2.5200879922
 H        -5.2016032830        4.1722799224        6.4113235429
 H        -5.2289423702        5.3768046148        5.2087052446
 H        -4.1942260686        5.4328960710        6.7100689123
 H        -1.7978490565        5.3163314186        4.9336416114
 H        -1.9303154936        4.0415088537        3.5048874918
 H        -2.9460645528        5.6155717340        3.7558672768
 Na       -0.0991233051       -0.1050957772        2.9355467455
