155

 C        -1.8506709293       -8.3549373396       -9.0636695246
 C        -2.5442370916       -7.2632934415       -8.2374412988
 C        -2.1253598012       -7.1177059167       -6.7523171849
 C        -1.2054917038       -5.7958237391       -7.0780885866
 C        -1.9317565565       -4.4151448825       -7.1028386728
 C        -3.4000951647       -7.1108464519       -5.8341786667
 C        -1.1731872474       -8.2577792324       -6.2290959740
 O        -3.3427723632       -6.5900324522       -8.7741677959
 O        -0.0189832320       -5.9043451032       -7.3544212175
 C        -0.9937870075       -3.2796356223       -6.8201767870
 C        -1.6337272873       -1.9771491168       -7.0340775270
 C        -0.8211971013       -0.6578055132       -7.0034033934
 C        -1.0763461723        0.0867373146       -5.6135059641
 C        -2.1070797560        1.3127566220       -5.4886144220
 O        -2.7980694852       -1.8960389685       -7.2218258089
 O        -0.3999793938       -0.3466177634       -4.7103829706
 C         0.7175512689       -0.7827961099       -7.0711763523
 C        -1.3432267197        0.2002549134       -8.1919757982
 C        -1.3754611233        2.6183590461       -5.4152785904
 C        -2.0916556074        3.7435769095       -4.5902497058
 C        -1.3023169497        4.4739140248       -3.4106852841
 C        -0.6575224365        3.4540774232       -2.3545028929
 C        -1.4503688987        2.4073621942       -1.5707826453
 C        -0.0445736381        5.3523973225       -3.8410184539
 C        -2.3631712151        5.3555781462       -2.6087947515
 O        -3.1930575445        4.0971961322       -4.9191597101
 O         0.4951993524        3.5220647660       -2.0880112840
 C        -0.6563666239        1.1744092952       -1.2940605571
 C        -1.0589434038        0.5061797983        0.0146721744
 C        -1.2220178413       -1.0730080325       -0.0784534650
 C         0.1097332412       -1.7950582893        0.2751395879
 C         0.9138148942       -2.4883062636       -0.7963513071
 O        -1.2160256721        1.1255770877        1.0473509230
 O         0.4209566926       -1.7097047395        1.4578311640
 C        -2.3678360663       -1.5305058681        0.7882386070
 C        -1.6597179195       -1.4603039672       -1.5207371244
 C         2.1480148010       -3.2242167216       -0.0686260419
 C         3.2645738879       -2.1670755841        0.3372177056
 C         4.5680541509       -2.7013730875        1.0409296852
 C         5.1580964590       -1.4444560735        1.8547703637
 C         4.4030544646       -0.6326427304        2.9124257237
 C         4.3871536602       -3.9808032096        1.8966824751
 C         5.5270126671       -3.0457057116       -0.1281903189
 O         3.0923064258       -0.9763835715        0.1648473327
 O         6.3000307356       -1.1569043521        1.6182347167
 C         5.2135930004        0.4200708071        3.6659528119
 C         4.3625049144        1.3135329513        4.5617615666
 C         3.5414372986        2.5618529853        3.9198255256
 C         2.0801646822        2.0513939842        4.0055359069
 C         1.2063989977        2.1743825113        5.2557825683
 O         4.1388248640        1.1302742764        5.7179234996
 O         1.6798518821        1.3670346251        3.0815184645
 C         3.7262741858        3.8333704944        4.6787251389
 C         3.9471680273        2.8193051789        2.4042535358
 C         1.3652214476        1.0516032310        6.1933370262
 C         0.8666749301       -0.2649659027        5.7193380999
 C        -0.5246140300       -0.9192387180        6.3121380060
 C        -1.7089884223        0.0183781110        5.7071492919
 C        -2.9052216108        0.4816165120        6.6744498252
 C        -0.5862083853       -2.2825824092        5.7016726436
 C        -0.6856907440       -1.0152397464        7.8441399005
 O         1.4757485055       -0.8639393076        4.8588459357
 O        -1.7050843811        0.3835875636        4.5042618288
 C        -3.8468393967        1.5149004429        5.9943445223
 C        -3.0180174024        2.7547517924        5.6795032461
 C        -3.5998670676        3.8691373883        4.7923302389
 C        -4.8029560117        3.3248508347        3.7388528144
 C        -4.8245225946        3.8832260789        2.2614689988
 O        -1.8607706933        2.8604830604        6.0555159721
 O        -5.6752095550        2.5283537055        4.1140174029
 C        -4.3709721861        4.7207945568        5.8525867989
 C        -2.5444517420        4.8725000035        4.2279196918
 H        -0.8988879264       -8.1498398807       -9.5097173900
 H        -1.6388521452       -9.2909581978       -8.5044471416
 H        -2.5881139285       -8.6174772684       -9.9063165500
 H        -2.3446366762       -4.2479544367       -8.0982852035
 H        -2.8257042320       -4.3976548586       -6.4442880075
 H        -4.2249421761       -6.5884380927       -6.3159065141
 H        -3.2398522818       -6.4842738336       -4.9287801529
 H        -3.5400544206       -8.1687063599       -5.6048539905
 H        -0.0885153445       -7.9885395909       -6.3502424660
 H        -1.1301057070       -8.4642942663       -5.1813683397
 H        -1.3449729872       -9.2471609143       -6.6909214812
 H        -0.5498954328       -3.3390071702       -5.7812856320
 H        -0.1180031392       -3.4699895893       -7.3842973016
 H        -2.9391058317        1.4164626512       -6.2499799489
 H        -2.6534247544        1.2127115025       -4.4896427169
 H         1.3085210546        0.1011534861       -6.8591651351
 H         1.1747215429       -1.2142790803       -7.9679104141
 H         0.8814945996       -1.6732131385       -6.3305157698
 H        -1.1741079045       -0.2506293191       -9.2354183203
 H        -2.3882880027        0.4434138395       -8.2168947981
 H        -0.7300650364        1.0642397491       -8.1992080221
 H        -1.1583610238        3.0227065428       -6.4248329753
 H        -0.4348290790        2.5058451409       -4.8532230416
 H        -1.7213106355        2.7942790788       -0.6023596822
 H        -2.3992765109        2.1961551769       -1.9279697876
 H         0.6120568335        5.5993333773       -2.9761824675
 H        -0.4927501822        6.3449514209       -4.1774887399
 H         0.6127436133        4.9220762770       -4.6504515344
 H        -1.8272771093        6.1027761887       -2.0331937508
 H        -2.8950481205        6.0445771294       -3.2491236453
 H        -3.0447628896        4.7401505797       -2.0846335195
 H        -0.6272220036        0.4352578532       -2.0569825883
 H         0.3914867739        1.4883868238       -1.2273240133
 H         0.3371270621       -3.1070642081       -1.4445204343
 H         1.3030927426       -1.6619840475       -1.4322246023
 H        -3.3129357447       -1.2210321548        0.2988021273
 H        -2.5046087294       -1.0123521996        1.7829913421
 H        -2.2863207780       -2.5949530324        1.0362857728
 H        -0.8144164949       -1.4508771742       -2.1549330954
 H        -2.0511482812       -2.4221743460       -1.3886966320
 H        -2.3861669659       -0.7546663256       -1.9190344631
 H         2.6695541176       -3.9618084316       -0.7307342402
 H         1.8541666617       -3.6114366332        0.8954288573
 H         3.4964300626       -0.2329046740        2.5209285780
 H         4.0202990220       -1.4701511008        3.6208890461
 H         4.0125362984       -4.8065763328        1.2359790639
 H         3.6225266869       -3.9193899454        2.6571587228
 H         5.2863745686       -4.3268311756        2.4454397574
 H         6.5148806064       -3.0179272134        0.2988593036
 H         5.4350716987       -4.0051873941       -0.5780530469
 H         5.3520603741       -2.3095647996       -0.9490616063
 H         5.8070359540       -0.0866081101        4.3573637196
 H         5.8888512041        0.7919699388        2.9030035222
 H         1.2756682038        3.1947755075        5.7456575779
 H         0.2010532688        2.2718492024        4.9309281528
 H         4.2172702674        4.6119486816        4.1122207070
 H         4.4198097439        3.6733919339        5.5007559853
 H         2.8212108502        4.3550853345        4.9272816494
 H         4.7081866408        3.5326428497        2.1681543731
 H         4.3198653348        1.9210197554        2.0172717040
 H         3.0464770902        3.0807493685        1.7910936422
 H         0.9659666140        1.2460340379        7.1931350669
 H         2.4514788781        0.8886911295        6.4957840381
 H        -3.4435255280       -0.4770715966        6.8561533963
 H        -2.4865827263        0.8545782425        7.6332056933
 H         0.3816458002       -2.7794445140        5.3935889180
 H        -0.9826267896       -2.4485972342        4.6861091711
 H        -1.0795306535       -2.9709471473        6.3269713671
 H         0.0863964113       -1.5131070802        8.3890970064
 H        -0.6391511192       -0.0089472348        8.3915818701
 H        -1.5961770340       -1.5204084647        8.1941770388
 H        -4.3620028939        1.2831831965        5.0820232858
 H        -4.6534921929        1.6822999392        6.6641061177
 H        -4.3546316851        3.1387684841        1.6380134153
 H        -5.7619421775        4.0691204595        1.7970071068
 H        -4.2268197143        4.8385136123        2.1947229800
 H        -4.6705586446        4.1524508168        6.8061408342
 H        -5.1733102608        5.1805523845        5.3626601885
 H        -3.7475642066        5.4984171334        6.1899617401
 H        -1.7730698447        5.1101944673        4.8587589863
 H        -2.1699329870        4.2915939165        3.3744774119
 H        -3.0356172414        5.8137766253        3.9758353635
 Na       -0.0786888285       -0.0565277247        2.9804526789
