155

 C        -0.8821492660       -8.0834076588       -9.3107982563
 C        -2.0334134860       -7.3250008098       -8.5924577409
 C        -1.8105440409       -7.0765185447       -7.0736761535
 C        -1.0288342772       -5.6577410006       -6.8811547792
 C        -1.8207500042       -4.2139482700       -6.6521391691
 C        -3.2033701351       -6.9562482399       -6.3911397947
 C        -1.0756822383       -8.1924223200       -6.3694764977
 O        -3.0977977493       -7.1656762985       -9.1853800290
 O         0.1753815705       -5.6098250411       -6.7799315000
 C        -1.1345569636       -3.0847194790       -7.4414581770
 C        -1.7602903014       -1.7292509133       -7.3266115542
 C        -0.8345519802       -0.4001015072       -7.1897943757
 C        -1.0480721316        0.2033184468       -5.8160034696
 C        -1.9116835282        1.5472262615       -5.7098694734
 O        -2.9433418980       -1.6597581037       -7.2859217053
 O        -0.6144591673       -0.2619467735       -4.7699408960
 C         0.7474442890       -0.7490316022       -7.1791588143
 C        -1.2956921195        0.4343709863       -8.3973046957
 C        -1.2439181985        2.5415865676       -4.8111054135
 C        -2.2614399952        3.6990759961       -4.3341945851
 C        -1.5238237217        4.5222770654       -3.2083729924
 C        -0.6053465190        3.5785912648       -2.2492376223
 C        -1.2900074053        2.3054676314       -1.5756722772
 C        -0.6489237023        5.5689223066       -3.8865224455
 C        -2.4642177772        5.2988936626       -2.2698379437
 O        -3.3912773704        3.7444115590       -4.7256563339
 O         0.5904913195        3.7270084592       -2.0151579511
 C        -0.5266629168        1.0351097555       -1.3164893385
 C        -1.0977643936        0.3212659873       -0.1199926879
 C        -1.3480940350       -1.2396790563       -0.2274956031
 C         0.0774187114       -2.0024178701        0.2695001486
 C         1.0183467969       -2.4468961043       -0.7370896341
 O        -1.2462704426        0.8781267735        0.9618272410
 O         0.3342564280       -2.0472774570        1.4851549825
 C        -2.4274409046       -1.7096982112        0.8154298192
 C        -1.7467176331       -1.6857108230       -1.6353032254
 C         2.2741089715       -3.0601738630       -0.0818832188
 C         3.3393054303       -1.9719452674        0.2703624837
 C         4.6142018364       -2.4900121080        1.0866943394
 C         5.2827920921       -1.3047281955        1.9453195771
 C         4.3527721819       -0.4826674995        2.8423431758
 C         4.3154920497       -3.5623306558        2.1295053625
 C         5.5920690694       -3.0365251706       -0.0088743606
 O         3.2497526591       -0.7952789417       -0.0709943241
 O         6.4907744030       -1.3158831404        2.0485323970
 C         5.1983510806        0.3877390491        3.6743411642
 C         4.4047577989        1.3176237994        4.5846920065
 C         3.3780872055        2.5681605599        3.9908814708
 C         1.8808951929        2.0693242819        3.9088449631
 C         0.8415996810        2.3436407302        5.0069219699
 O         4.5642949827        1.2376731804        5.7646604954
 O         1.5683462604        1.3126013606        2.9880611979
 C         3.7378595516        3.6663634633        5.0800364251
 C         3.8410374685        2.8306435810        2.5468685341
 C         1.0271268621        1.2664584824        6.1538076549
 C         0.7097912867       -0.1723227730        5.6868080852
 C        -0.5773191631       -0.8993137633        6.2895049699
 C        -1.8068446269       -0.1162156949        5.9273964653
 C        -2.7615444010        0.5928998679        6.8514026636
 C        -0.6428527784       -2.3304111062        5.5753490625
 C        -0.5203103957       -1.1230118585        7.7998682991
 O         1.3760368410       -0.6642280673        4.8284183254
 O        -2.0171014379        0.0558628525        4.7316287262
 C        -3.7662163307        1.4623213445        6.2069763243
 C        -2.9636486286        2.6452622947        5.6166176493
 C        -3.7721154850        3.7357763186        4.8147482981
 C        -4.8861672530        3.0425859415        3.8362359478
 C        -4.8883953218        3.4611936829        2.4232257183
 O        -1.7575643462        2.7895033408        5.7289496917
 O        -5.6445558646        2.2577518610        4.3767457968
 C        -4.5992565376        4.7070181020        5.6787949447
 C        -2.6766067412        4.6841614621        4.0770031862
 H        -0.6399848815       -9.0593316913       -8.7790894354
 H        -1.1854718311       -8.4459190322      -10.3930858810
 H         0.0528244994       -7.5554237832       -9.3678847601
 H        -2.8184885092       -4.2761504890       -7.0515405745
 H        -1.9156486911       -3.8862459986       -5.6061461892
 H        -3.6832764649       -5.9841148536       -6.6043974308
 H        -3.0848484861       -7.0254538070       -5.3542487153
 H        -3.8224000248       -7.7340836235       -6.8995769298
 H        -0.2074633975       -8.6430388905       -6.8959328444
 H        -0.7503544626       -7.9547993736       -5.3895930021
 H        -1.6856472892       -9.0561633697       -6.0363575228
 H        -0.0648340898       -3.0710504752       -7.0851199323
 H        -1.0787895653       -3.4054193061       -8.4540136373
 H        -2.1353354048        1.9838935434       -6.7311292497
 H        -2.8651333080        1.2652773676       -5.2027280167
 H         1.3227523220        0.0588901985       -7.6567924896
 H         0.9009182199       -1.6411351343       -7.7585244681
 H         1.1836183837       -0.9986898745       -6.2242008201
 H        -0.7556022318        0.1221226562       -9.3372267875
 H        -2.3332766354        0.5833219034       -8.5022385844
 H        -0.8502022669        1.4335565332       -8.3217676811
 H        -0.4742996379        3.1000100733       -5.3990126890
 H        -0.6489927044        2.0531084396       -4.0014593894
 H        -1.8006191957        2.6734067746       -0.6606511567
 H        -2.2034445115        2.0078100447       -2.0079018889
 H        -0.6681573790        6.5246278390       -3.1847434226
 H        -1.1137807510        5.9475171578       -4.7832694450
 H         0.3122325959        5.1612074570       -4.1219786034
 H        -1.7914647485        5.7811055476       -1.5335660347
 H        -3.0975775981        6.0442765181       -2.7500778842
 H        -3.1632877123        4.5887058442       -1.7038646625
 H        -0.4466332767        0.4751365446       -2.2476184899
 H         0.5734058012        1.1073939049       -1.0464980789
 H         0.5649088413       -3.2882717363       -1.2672043998
 H         1.1590173515       -1.6958961882       -1.5614704151
 H        -3.2228305842       -0.8477990755        0.8211181326
 H        -2.0739954560       -1.9709433690        1.8050179800
 H        -3.1202598174       -2.5463218303        0.5743445462
 H        -0.8539627906       -1.4585959732       -2.2627172467
 H        -2.0646456893       -2.7561607427       -1.6251410169
 H        -2.7204650363       -1.2741960553       -2.0209580728
 H         2.7976718156       -3.8450524605       -0.7175647592
 H         1.8867427874       -3.4946424706        0.8675439012
 H         3.6332550704       -0.0273052988        2.1944210595
 H         3.6933560776       -1.1213660739        3.5142152354
 H         4.2702376679       -4.5666444219        1.6990145676
 H         3.4410911533       -3.3289519832        2.6268412500
 H         5.1178451372       -3.6593873802        2.8952587977
 H         6.6120537238       -2.6879513482        0.2529103144
 H         5.5446014525       -4.1088599907       -0.1158325225
 H         5.3497979251       -2.6868264385       -1.0398122309
 H         5.8708802300       -0.2774783058        4.0796892126
 H         5.7658904201        0.9992094746        2.9778753872
 H         0.9182440102        3.3389929328        5.5546723616
 H        -0.1123566923        2.1546614406        4.5186087192
 H         4.8304841730        3.6761519565        5.0782171259
 H         3.3914367139        3.4819717220        6.1646172831
 H         3.4373481313        4.6462765790        4.7416895470
 H         4.8459153748        2.5699388352        2.3285364715
 H         3.3391059202        2.2895897175        1.8195661754
 H         3.7423151489        3.9454367510        2.3065474590
 H         0.4910283085        1.6984544568        6.9875277564
 H         2.1027999243        1.2966714301        6.4847059508
 H        -3.1826053116       -0.1790443191        7.5055951884
 H        -2.0801158616        1.0723175100        7.5657828125
 H        -0.4702327420       -3.2150322798        6.1581301650
 H         0.0176408529       -2.4872633489        4.7660769503
 H        -1.6433562932       -2.6293655297        5.1401602220
 H         0.3975245862       -1.4178079826        8.2248477775
 H        -0.7613845432       -0.2118199873        8.3614711361
 H        -1.1718389183       -1.8423642725        8.2335190019
 H        -4.5073036066        0.9427156539        5.6478033082
 H        -4.3058823154        1.9655627864        6.9801675257
 H        -3.9628089388        3.0135624688        2.0592755309
 H        -5.6731142299        3.0628225235        1.8499890328
 H        -4.9186169948        4.5539901285        2.1328223719
 H        -5.6070722454        4.5918805433        5.3755669939
 H        -4.3082401547        5.6880237603        5.6385796742
 H        -4.4620582190        4.4392173613        6.6919289800
 H        -2.2748511225        5.2478222535        4.9214626622
 H        -1.7499488515        4.1368063324        3.6328447359
 H        -3.1243630315        5.4073500497        3.3375490625
 Na       -0.3515797422       -0.1356955030        3.0750766715
