155

 C         1.0750120643       -6.8082819217       -8.8392534325
 C        -0.4759343688       -6.9994549519       -8.9015725611
 C        -1.3231832520       -6.7776180141       -7.5528068264
 C        -1.1691701463       -5.2379669090       -7.1296194003
 C        -1.4254965531       -4.1034428475       -8.0251072707
 C        -2.8573679269       -6.9531649560       -7.8068027526
 C        -0.7059086522       -7.7121197461       -6.4810982419
 O        -0.9466063830       -7.3843045308       -9.9252437678
 O        -0.8308109396       -5.0571317183       -5.9710428960
 C        -0.5602555559       -2.8349839730       -7.6151035869
 C        -1.3817862394       -1.5031280044       -7.3205330199
 C        -0.8845431830       -0.0223594151       -7.6014555900
 C        -0.9728546797        0.7863028077       -6.1962870970
 C        -1.8495104131        2.0889662036       -6.1026350887
 O        -2.4684689721       -1.5705105738       -6.8201216921
 O        -0.3300787194        0.2524937641       -5.3366728128
 C         0.6407440763        0.0648567808       -8.2190009807
 C        -1.7885965108        0.6074798494       -8.7567428444
 C        -1.2854913589        2.9841462724       -4.9969420914
 C        -2.2207833554        3.0540340974       -3.7474888132
 C        -2.0197953219        4.2765313296       -2.7034031064
 C        -0.8194383593        3.8841351064       -1.8207808162
 C        -1.0603319211        2.8327808146       -0.6351618148
 C        -1.6787735425        5.5962438086       -3.3791083487
 C        -3.3668186565        4.3398566509       -1.9476462170
 O        -3.0870749804        2.2579041731       -3.4547613175
 O         0.2768345068        4.2257167644       -2.1197612933
 C        -1.1473309416        1.4013474003       -1.1593583856
 C        -1.2204435783        0.3262893861       -0.1086071678
 C        -1.0465703263       -1.2672826982       -0.4494709313
 C         0.1884582564       -1.7745133595        0.2341867779
 C         1.0834362002       -2.6974253919       -0.6125873418
 O        -1.0101030578        0.7242126813        1.0226923107
 O         0.5872377539       -1.4525082697        1.3384082519
 C        -2.2133674406       -2.0092483480        0.3269554110
 C        -1.1907427893       -1.5669288771       -1.9922065392
 C         2.2703631790       -3.2120043251        0.1770308782
 C         3.3667635222       -2.2269250284        0.5099848384
 C         4.6867328239       -2.6635960609        1.3566795441
 C         5.2840191613       -1.3482990805        1.9601513307
 C         4.4914790218       -0.5397934391        3.0812868889
 C         4.3601108424       -3.6445213211        2.6107970374
 C         5.7950516685       -3.3599621746        0.5103408368
 O         3.2377592613       -1.0961016868        0.1400592240
 O         6.2770728455       -0.8762943977        1.4403121961
 C         5.1212491738        0.7940282269        3.4471371491
 C         4.2664759319        1.6064521400        4.4273723388
 C         3.1597140391        2.6541355619        4.0100085677
 C         1.7774235049        1.9446916466        4.2128907720
 C         0.8993286689        2.2205509830        5.4080282272
 O         4.5486374137        1.6169522829        5.5741251702
 O         1.4117868900        1.1193713960        3.3728613930
 C         3.3352941072        3.8935862234        4.9392032229
 C         3.2289638776        3.0177227920        2.5026880818
 C         1.1320598962        1.0464876060        6.3723431694
 C         0.7652563101       -0.3479982873        5.8456257851
 C        -0.3948728553       -1.1311097709        6.5220410166
 C        -1.7168593806       -0.3084542429        5.9586530876
 C        -2.9761330564        0.1766876731        6.9089615829
 C        -0.4700220718       -2.5679851960        6.1052517713
 C        -0.4113230689       -1.0739376356        8.0745903882
 O         1.2940485886       -0.8570010701        4.8783586287
 O        -1.8058248642       -0.2179672263        4.7187450539
 C        -3.9590146456        1.1006334886        6.0893193158
 C        -3.5108646878        2.4282332382        5.5995115100
 C        -4.6389174956        3.3412385964        4.9215667776
 C        -5.2350935650        2.5009086736        3.6313766097
 C        -4.6547166969        2.7380887178        2.1838649746
 O        -2.3315068698        2.7669664632        5.5747170600
 O        -6.1260882049        1.7063281550        3.8544736165
 C        -5.6961894446        3.6983004462        6.0908494359
 C        -3.8597673430        4.5576367867        4.3204717024
 H         1.4881662379       -7.2886425680       -9.6370003872
 H         1.4005116502       -5.7915945731       -8.8799022281
 H         1.5620364090       -7.2996072118       -7.9491501444
 H        -1.0806038871       -4.3771052429       -9.0390829015
 H        -2.4840980952       -3.8243526837       -8.1578226414
 H        -3.1302093122       -6.3279061425       -8.6607485407
 H        -3.5100394743       -6.5949689548       -6.9143356482
 H        -2.9585630741       -8.0271036996       -7.9945361724
 H         0.0146140300       -7.2627335447       -5.7980086749
 H        -1.4785710874       -8.0138538405       -5.7059063601
 H        -0.3983549937       -8.6815151627       -6.8464178219
 H        -0.1872993439       -3.1308717475       -6.6147799647
 H         0.3393715616       -2.7918693735       -8.2047027243
 H        -1.8224438620        2.5983500239       -7.0750684042
 H        -2.8081929203        1.5907657049       -6.0495021184
 H         0.6771900900        1.0396732262       -8.7264828227
 H         0.7886270835       -0.6943298471       -9.0383503928
 H         1.4653868838       -0.1920784411       -7.5003276724
 H        -1.8344359796       -0.0565429632       -9.5420058537
 H        -2.7874799737        0.6436843443       -8.2832617511
 H        -1.4599702734        1.6008334763       -9.2034125232
 H        -1.2557390173        3.9514805164       -5.4901451001
 H        -0.2375083950        2.7005671073       -4.7981507378
 H        -0.1370502587        2.7306689150       -0.0110971593
 H        -1.9570268431        3.1140982226       -0.0262197580
 H        -1.1341123887        6.1735922930       -2.7303834561
 H        -2.5652966871        6.1942258682       -3.6919908347
 H        -0.9540648240        5.2614834455       -4.1717701056
 H        -3.2895839384        5.0380688302       -1.1482519334
 H        -4.2498027560        4.6490006214       -2.4682224886
 H        -3.5414183910        3.3406244018       -1.6010090781
 H        -1.9885534928        1.2729538621       -1.7704156338
 H        -0.2824323244        1.2595473919       -1.7379551184
 H         0.6858870686       -3.5321836557       -1.1677301094
 H         1.5641316274       -2.1722653221       -1.4210206794
 H        -3.1191162179       -1.7305865208       -0.0033755709
 H        -2.1325844927       -1.7131328094        1.4065202491
 H        -1.9874889466       -3.0685466218        0.3452712473
 H        -0.2493076367       -1.3050278378       -2.4081943839
 H        -1.3908182820       -2.5444631679       -2.2560624036
 H        -1.8624366487       -0.9634262267       -2.5093716960
 H         2.6984150304       -3.9946530413       -0.4031688118
 H         1.9177066341       -3.6718254757        1.1106593234
 H         3.4860063580       -0.3643524256        2.6340743213
 H         4.4193512631       -1.1683953695        3.9345487584
 H         4.2311689550       -4.6530907162        2.2367262043
 H         3.4713795467       -3.2418682146        3.1239289356
 H         5.1896469404       -3.5117011552        3.2985762459
 H         6.4329108019       -4.0630197366        1.0894259953
 H         5.2427630854       -4.0301470736       -0.1942346769
 H         6.2594966774       -2.6441266613       -0.1144953155
 H         6.1573372443        0.5947748253        3.9246051946
 H         5.2404749556        1.2570552056        2.4474160986
 H         1.0199802866        3.1060159523        5.9475471682
 H        -0.1756412080        2.3632347673        5.0851247271
 H         4.2810157219        4.4441381472        4.8254531271
 H         3.3018699878        3.4301425410        5.8976308842
 H         2.5356457796        4.6283685530        4.7205879747
 H         4.2346948044        3.3961687430        2.2456831915
 H         3.0383383555        2.1982576249        1.7575518292
 H         2.6148629908        3.8459392660        2.3618079687
 H         0.5527759434        1.2597430962        7.2865411374
 H         2.2085333470        0.9799563057        6.5508309028
 H        -3.4192524917       -0.7568550264        7.2892220779
 H        -2.5436775368        0.7658595181        7.7517321295
 H        -1.4048684386       -2.7274007966        5.4995301332
 H        -0.5839827070       -3.3553170689        6.8986393225
 H         0.4166212718       -2.8358290217        5.5924284835
 H         0.5768807935       -1.3723736193        8.5534746928
 H        -0.6821174784       -0.1191126853        8.4896546812
 H        -1.1095135025       -1.8792762626        8.4405884586
 H        -4.1290386287        0.4884310569        5.1764143456
 H        -4.9104978150        1.1952928832        6.6899928526
 H        -4.3995387584        1.7884690533        1.7261269817
 H        -5.5030942556        3.1445445096        1.5307589675
 H        -3.8070080281        3.3071724451        1.9493793229
 H        -6.8043853524        4.0776263854        5.8871308975
 H        -5.1239856075        4.3637373903        6.7824071514
 H        -5.8716958127        2.7765758178        6.7229906302
 H        -3.3463248429        5.2238594459        5.0181240318
 H        -3.1782571671        4.2733203300        3.5984171878
 H        -4.6212729178        5.1730581103        3.8775352431
 Na       -0.3749135878       -0.2195480063        3.0956425368
