155

 C         1.2136073004       -6.6151612831       -8.6279776828
 C        -0.2540051194       -6.7806395376       -8.8462252874
 C        -1.2264288269       -6.6701889871       -7.6306414588
 C        -1.0635843484       -5.1855185946       -7.0747889106
 C        -1.2534215744       -3.9831566161       -8.0440577220
 C        -2.5954480005       -7.0111199427       -8.1749680203
 C        -0.8882419633       -7.5749466329       -6.4498516623
 O        -0.6868017839       -7.0322069601       -9.9469620309
 O        -0.7281271223       -5.0421787113       -5.9296561751
 C        -0.4658307960       -2.7103294085       -7.6029619030
 C        -1.4090833418       -1.4736169359       -7.2914011289
 C        -0.9239433959       -0.0429655936       -7.6630600455
 C        -0.9112167683        0.7594843358       -6.3604714546
 C        -1.9673867227        1.9975421984       -6.1138508317
 O        -2.5753655750       -1.6197791738       -6.9083591362
 O         0.0497511696        0.6014713642       -5.5738556831
 C         0.5318014319       -0.0241703029       -8.1750641619
 C        -1.8727004024        0.3991919616       -8.7526563120
 C        -1.3664725164        2.9529017242       -5.0280393924
 C        -2.2422473704        2.9687236733       -3.7381290244
 C        -2.1193128405        4.1234041162       -2.6587711059
 C        -0.8719012381        3.7717196521       -1.8208282990
 C        -0.9166158435        2.7537336295       -0.6703872765
 C        -1.9423700949        5.5666193001       -3.2657326817
 C        -3.3561131821        4.2856148525       -1.6474346604
 O        -3.0377116330        2.0586529365       -3.5706528716
 O         0.2378690881        4.3211912410       -2.0330709607
 C        -1.2182318032        1.2602869508       -1.1829743507
 C        -1.1268008344        0.2604546771        0.0172394173
 C        -1.0098571520       -1.2332716010       -0.3724024618
 C         0.2887510704       -1.8900030710        0.2020753043
 C         1.2346054704       -2.6589929830       -0.5983690760
 O        -1.1603445601        0.7462991562        1.1306805775
 O         0.5244836639       -1.7074310423        1.4034529420
 C        -2.3205301618       -1.7384965469        0.2065205105
 C        -1.0788508598       -1.3913795847       -1.9060462718
 C         2.3788961307       -3.2703385870        0.3566817373
 C         3.4452540100       -2.1834260502        0.6319341391
 C         4.6275465557       -2.5781719524        1.5204753840
 C         5.2123245056       -1.1836023295        1.9450316318
 C         4.4297222903       -0.4196734834        3.0390295887
 C         4.1088941903       -3.5586263659        2.5965399264
 C         5.6792170248       -3.3419666751        0.5071216377
 O         3.3607479683       -1.1163371890        0.0430048363
 O         6.2386832056       -0.7604492480        1.5150318329
 C         5.1616073257        0.9282081053        3.2882043819
 C         4.3460408809        1.6562477483        4.3080699773
 C         3.2001534745        2.6733516987        4.0051225759
 C         1.8828211130        1.8976180558        4.2265192730
 C         1.0131007759        2.1097575319        5.5120466852
 O         4.6955616837        1.4686499372        5.4815854772
 O         1.4255795205        1.2703047555        3.2858598051
 C         3.3710399093        4.0239806213        4.7303897423
 C         3.2380947020        3.0032727433        2.4761590604
 C         1.1478111540        1.0624509763        6.6230075370
 C         0.6753079949       -0.3398610146        6.0840158387
 C        -0.5573074163       -1.0814174210        6.4715786135
 C        -1.8888005669       -0.4613360521        5.7452392792
 C        -2.8439928340        0.2301526150        6.7721209232
 C        -0.5454719921       -2.5679347349        5.9988294331
 C        -0.5876315742       -1.0087603902        8.0162375143
 O         1.3815072054       -0.8540279369        5.2398394606
 O        -2.0433621222       -0.5574068223        4.5795486998
 C        -4.0845685996        0.9221505011        6.0826683011
 C        -3.5487460958        2.2807861556        5.5050697865
 C        -4.7211399448        3.2836822913        4.8890626561
 C        -5.2357950813        2.3823668389        3.6487080291
 C        -4.6094814740        2.6254527353        2.3160748858
 O        -2.4049603560        2.6373837869        5.6241759815
 O        -6.0827235337        1.5930589167        3.9585251162
 C        -5.8846927298        3.4428254622        5.8461040251
 C        -4.1483171830        4.6419670075        4.5791673196
 H         1.7158224241       -6.0688961466       -9.5285009011
 H         1.4432119087       -6.0494783117       -7.6983902939
 H         1.7362561061       -7.5601478042       -8.6258532391
 H        -1.1459892858       -4.1311661705       -9.1120199661
 H        -2.2864268292       -3.6258994028       -7.9625595061
 H        -2.8883369932       -6.5891058517       -9.1437560008
 H        -3.2539622762       -6.6528703769       -7.5092535566
 H        -2.5152769845       -8.1010451386       -8.2443500708
 H         0.1026363202       -7.4873735779       -5.9837934286
 H        -1.5957926066       -7.5384662730       -5.6549728742
 H        -1.0062521550       -8.6244291597       -6.7615162627
 H         0.2020824458       -2.9894611015       -6.7758574569
 H         0.2450116149       -2.4560012013       -8.4296272402
 H        -2.0337730181        2.4267577908       -7.0954523958
 H        -2.9901483516        1.6789695001       -5.8135769388
 H         0.6543538553        0.9657481654       -8.6298341879
 H         0.7566135210       -0.8078744577       -8.8512078389
 H         1.1932018807       -0.1854641802       -7.4086193776
 H        -1.6233669917       -0.1593295174       -9.7206973611
 H        -2.9045350344        0.3993851177       -8.4644493454
 H        -1.5532984999        1.3763102883       -8.9795695134
 H        -1.1439748886        3.9469388699       -5.4185186048
 H        -0.4365488617        2.5320809268       -4.6809795247
 H         0.0130953466        2.6974507574       -0.0870247813
 H        -1.7281908474        2.9861029507        0.0162520952
 H        -2.0448378244        6.2265793160       -2.3681280116
 H        -2.6992097343        5.8932525946       -3.8945669721
 H        -0.9857147383        5.5848805122       -3.7018847074
 H        -3.0188065889        4.9233911299       -0.8264781922
 H        -4.1996498048        4.7989798915       -2.0948438999
 H        -3.8254982747        3.2812896897       -1.3946040794
 H        -2.2544498431        1.2378982852       -1.6731102751
 H        -0.3795478769        1.0311201957       -1.9179958592
 H         0.6598737321       -3.4740498833       -1.0930408471
 H         1.6867250841       -2.1145970348       -1.4728923202
 H        -3.1038469916       -1.0285524874       -0.2723162756
 H        -2.2898476450       -1.5931364735        1.2523932200
 H        -2.5258561582       -2.7920472174       -0.0228027487
 H        -0.3320747955       -0.7166876806       -2.4557698840
 H        -0.9018386803       -2.4779481314       -2.2863033493
 H        -2.1282116578       -1.1614962568       -2.3110528445
 H         2.9295928244       -4.1601068893       -0.0901038781
 H         1.7901694779       -3.5825887514        1.2372473306
 H         3.4655078414       -0.2609715857        2.5647400517
 H         4.3388731922       -0.9987352259        4.0210126655
 H         3.7659484393       -4.4442332270        2.0162670047
 H         3.3193727861       -2.9905144195        3.0361100303
 H         4.8550183221       -3.7900519867        3.3779708151
 H         6.5135048860       -3.6995198141        1.0746049419
 H         5.2853665288       -4.1271373990       -0.1076384310
 H         5.9213350249       -2.5455601878       -0.2258825285
 H         6.1407339506        0.7660507960        3.5701992247
 H         5.1093228849        1.4533165844        2.3341946005
 H         1.3122476245        3.1511933967        5.8934360923
 H         0.0504389391        2.3518383275        5.1876926892
 H         4.0018155780        4.5772393650        4.0747468344
 H         3.7689875892        3.9626798686        5.7808295484
 H         2.4631382344        4.5614666368        4.6336217895
 H         4.1950015810        3.3094347513        2.0647025856
 H         3.0177086933        2.1168992206        1.9479432625
 H         2.4347904026        3.8148331829        2.2632231897
 H         0.5586968925        1.2679284264        7.5096152081
 H         2.2145764064        1.0413274994        6.8512929962
 H        -3.2480023566       -0.5479483905        7.4489769011
 H        -2.2431747433        0.9662500394        7.3158827818
 H        -1.2085311946       -3.0835402473        6.6153121818
 H         0.4201089866       -2.9755988834        6.1157564954
 H        -0.7478254206       -2.5763732719        4.8646369120
 H         0.4106362018       -1.2594431371        8.3430652331
 H        -0.8101102260        0.0145320612        8.3879267920
 H        -1.2733859207       -1.7115374556        8.4579977324
 H        -4.4052997766        0.1931320401        5.3524099667
 H        -4.8071248176        0.9962327665        6.8509359860
 H        -3.7432893252        1.9908651626        2.0578697749
 H        -5.2715627478        2.5159980471        1.5096536323
 H        -4.1074915680        3.6216502190        2.2351474278
 H        -6.2256260219        4.3538556624        5.5768076173
 H        -5.6870422561        3.4472661966        6.9248268285
 H        -6.7411405020        2.8488612943        5.6378610604
 H        -4.1681661541        5.1312545167        5.5970869349
 H        -3.0389471680        4.6995226536        4.4195112929
 H        -4.7438398841        5.3633983991        4.0658730001
 Na       -0.2629709387       -0.2931769780        2.9796213498
