155

 C         1.4020810350       -6.4659004899       -8.2981773380
 C         0.0503950185       -6.5671556017       -8.7869087011
 C        -1.0907038180       -6.5747557750       -7.6700643940
 C        -0.9953273524       -5.1604439317       -7.0196897224
 C        -1.3926951877       -3.9935694350       -7.9542726682
 C        -2.4841228598       -6.6586552045       -8.2725149676
 C        -0.9057102351       -7.6869880006       -6.6839025871
 O        -0.2279890404       -6.6110619113       -9.9787633841
 O        -0.5548908732       -4.9515793602       -5.8869563738
 C        -0.5418577013       -2.7707839743       -7.5687658594
 C        -1.4701338446       -1.5753192512       -7.3464201633
 C        -0.8126527571        0.0284790489       -7.7468268801
 C        -0.7181624063        0.9968664602       -6.3473779457
 C        -1.9388907820        1.8837655880       -6.0044446246
 O        -2.5694752630       -1.6952487357       -6.9564713049
 O         0.2756299068        0.9397633111       -5.6980424209
 C         0.5600582344       -0.0019040798       -8.4064785643
 C        -1.9726400275        0.5746180988       -8.6780132025
 C        -1.6338911051        2.9945522532       -4.9898849907
 C        -2.3722355292        2.8780312692       -3.6798698276
 C        -2.2025284282        4.0065498814       -2.6841086288
 C        -0.7592309089        3.8637286470       -1.8242248520
 C        -0.8292330983        2.9019689222       -0.6476211505
 C        -2.0671222285        5.4333230632       -3.4115643086
 C        -3.4216387978        3.8373487905       -1.6900713201
 O        -3.1836915935        1.9816641994       -3.4669393635
 O         0.2325623954        4.4159654515       -2.1211990570
 C        -1.0956960297        1.4326972995       -1.1468382913
 C        -1.0503334010        0.3433806567       -0.0869888704
 C        -0.9842543235       -1.2399284540       -0.3700584495
 C         0.2557433474       -1.8990719783        0.3233234622
 C         1.1545000775       -2.7540278744       -0.5400358099
 O        -1.2100199804        0.6370375052        1.0887169340
 O         0.2396022483       -2.0286767991        1.5280112595
 C        -2.2310324485       -1.8741631679        0.2827623676
 C        -1.0055666505       -1.4601132691       -1.8925578071
 C         2.3924732748       -3.2864876341        0.0520924458
 C         3.3649234131       -2.1965978018        0.5105697055
 C         4.5651538895       -2.4778449058        1.4826889075
 C         5.1647443008       -1.1207486997        1.8680559697
 C         4.4521675145       -0.3170406213        2.9620628808
 C         4.2405586020       -3.3615219627        2.7979274818
 C         5.6215198016       -3.3320131583        0.6654515856
 O         3.3479937069       -1.1243788458       -0.0596130005
 O         6.3381420462       -0.9259732160        1.5822686879
 C         5.1636783454        0.9728562224        3.3012316645
 C         4.3394528993        1.7493691266        4.3183359123
 C         3.2350838161        2.7476304359        3.7813449199
 C         1.8814100942        2.0222751425        4.2143666201
 C         1.1964822316        2.2175804912        5.5581542191
 O         4.5133811479        1.6201148149        5.4992334340
 O         1.4094888348        1.2934529744        3.3577862237
 C         3.3866100031        4.0360705534        4.7554806945
 C         3.2297510330        3.1677219966        2.3065791341
 C         1.1318405471        1.0204299510        6.5280516990
 C         0.7873162057       -0.4265206709        6.0220338464
 C        -0.5869130973       -1.0933247671        6.4967119935
 C        -1.8542093051       -0.4326430052        5.8681824442
 C        -2.9933283940        0.0811539246        6.7814279067
 C        -0.5425021533       -2.6479288020        5.9367989562
 C        -0.8426837334       -1.1426018992        8.0283560621
 O         1.4668108812       -0.9142580791        5.1533954003
 O        -2.0923180581       -0.5397069439        4.6254309380
 C        -4.1327948604        0.8161109341        5.9892744090
 C        -3.7289016670        2.2186583197        5.5477043039
 C        -4.9133089598        3.1833897842        4.9323968770
 C        -5.2233442755        2.3428470300        3.6689042255
 C        -4.4691814830        2.6476626519        2.3538050051
 O        -2.5761808293        2.6896875283        5.5315667919
 O        -6.0015102754        1.3851175665        3.7141793644
 C        -6.1015082691        3.1883349832        5.9502557094
 C        -4.2450921161        4.5041313382        4.7046172730
 H         1.6900047146       -5.4556812591       -8.3166929133
 H         1.5061541594       -6.8947926334       -7.2910694174
 H         2.0766249333       -6.9473829938       -8.9945984201
 H        -1.3497977030       -4.1513932392       -9.0401804228
 H        -2.4023266830       -3.6159844664       -7.8091720030
 H        -2.6923550299       -5.7328769327       -8.7635167955
 H        -3.2999229304       -6.6199054832       -7.4412508075
 H        -2.4610887633       -7.3713318494       -9.0478424165
 H         0.1351821260       -8.0480069822       -6.6416900716
 H        -1.2678754112       -7.4228134975       -5.6364192142
 H        -1.4648718091       -8.6050848664       -6.8510370633
 H        -0.0770235319       -2.9942646642       -6.6106756398
 H         0.3096526583       -2.5945643535       -8.2039288992
 H        -2.4871615030        2.1471926278       -6.9645917855
 H        -2.7101001344        1.3043702179       -5.4280443002
 H         1.0680919297        0.7580339723       -7.8912856307
 H         0.4890600047        0.0561670647       -9.4997796563
 H         1.1986025963       -0.9845618376       -8.2912911254
 H        -1.9523306071        0.0422820399       -9.5838804169
 H        -2.9078018922        0.4497918942       -8.1160008652
 H        -1.8839532184        1.6711700430       -8.9173057081
 H        -1.7238838382        4.0152114134       -5.3901316440
 H        -0.5600925326        2.9089573330       -4.6166740331
 H         0.0839497318        2.9629063764       -0.0965926043
 H        -1.5960783368        3.0554064609        0.1306667445
 H        -2.6169360684        6.1600929448       -2.8184371697
 H        -2.7152708713        5.3888453123       -4.3630946182
 H        -1.0125197019        5.6345267483       -3.7178332750
 H        -3.2535886047        4.6077194350       -0.8975428079
 H        -4.3658739470        4.0824712623       -2.2410358468
 H        -3.6426168947        2.8668235409       -1.4000300319
 H        -2.0956621993        1.4481828772       -1.5369818718
 H        -0.3674911270        1.1848227013       -1.8826747466
 H         0.6048885648       -3.6544119980       -0.8202154094
 H         1.3648873605       -2.3501912463       -1.4908037758
 H        -3.0548678832       -1.2476208802       -0.0314296025
 H        -2.0441863653       -1.9256322395        1.4301586549
 H        -2.4679480587       -2.8732971827       -0.1024191758
 H        -0.1118355323       -1.3138411256       -2.4321441970
 H        -1.4008466873       -2.3901642956       -2.1707039505
 H        -1.7935102170       -0.7737207595       -2.1548454301
 H         2.9258489162       -3.7686346019       -0.7406540059
 H         1.9955931346       -3.9971728537        0.7694278264
 H         3.3867049417       -0.1129902657        2.7005544802
 H         4.4853774592       -0.9072793802        3.8119458948
 H         3.7984334436       -4.2585338643        2.5185295950
 H         3.7381897397       -2.7197954887        3.5399800413
 H         5.1938590322       -3.5674046347        3.1889155708
 H         6.5239049178       -3.2850795419        1.2816636406
 H         5.2172641836       -4.3643530966        0.6494440478
 H         5.7509880230       -3.1324128051       -0.3712468629
 H         6.2053847769        0.7960995477        3.8018165908
 H         5.3263131672        1.5393222155        2.3790696392
 H         1.6570197247        3.0502105758        5.9531638691
 H         0.1589998418        2.6561333729        5.3235123374
 H         4.3785005706        4.5252087360        4.6310031319
 H         3.2967818943        3.6224558349        5.6964671136
 H         2.5458580488        4.7720790591        4.5951689063
 H         3.9929145921        3.9478359739        2.2140300702
 H         3.5817738671        2.3796405030        1.5920425164
 H         2.3000990684        3.4831753235        2.0356136665
 H         0.4194237364        1.1480688635        7.3781564608
 H         2.1388296834        0.9192434213        6.9857895630
 H        -3.4884268318       -0.6780134028        7.3757309694
 H        -2.5622518475        0.8806772638        7.3896320327
 H         0.1261424088       -3.1876888013        6.7415276941
 H         0.0167004147       -2.6702549551        4.9157157968
 H        -1.5341937247       -3.0008224254        5.7791309058
 H        -0.1917427798       -1.8718083226        8.5352534289
 H        -0.7321596362       -0.1220686164        8.3945337611
 H        -1.8952446427       -1.3334959978        8.2138030962
 H        -4.4851795272        0.2399631845        5.1263268848
 H        -4.9318017851        0.7270029177        6.7578025832
 H        -3.4194141662        2.8057799886        2.4263444592
 H        -4.5853619096        1.9047464754        1.5390039978
 H        -4.7060501828        3.6244256132        1.9987925701
 H        -6.7446387168        4.1178556668        6.0425991216
 H        -5.6143438358        3.1549525286        6.8902388961
 H        -6.8688253664        2.4258301195        5.8454541804
 H        -3.8819584736        5.1070914481        5.4810997911
 H        -3.3066724572        4.3753703238        4.1560091566
 H        -5.0413409265        5.1734871716        4.2463543387
 Na       -0.2157564879       -0.4627015711        3.2635187286
