155

 C         2.6292630346       -5.8574181718       -7.5729561012
 C         1.4422558824       -5.1528874387       -8.3345381976
 C        -0.0576272791       -5.4830601659       -7.8600305458
 C        -0.3951722065       -4.5616518340       -6.6840352729
 C        -1.2056351197       -3.2766644610       -6.7819815498
 C        -1.0266219798       -5.2680588798       -9.1155679547
 C        -0.2777425354       -6.9231740912       -7.3452016434
 O         1.5709150588       -4.3338153448       -9.2527075090
 O        -0.1007350613       -4.9591762719       -5.5689348554
 C        -0.5123775449       -2.2472127083       -7.7235375610
 C        -1.4120172177       -1.0484678124       -7.7992879455
 C        -0.6880304189        0.3315399302       -8.1044037403
 C        -0.7042943457        1.1084541170       -6.7601072306
 C        -2.0482419233        1.1189814157       -5.9516728929
 O        -2.6268987299       -1.0268682380       -7.7542828582
 O         0.2905352108        1.7963288663       -6.4264735206
 C         0.7050376843        0.4670278575       -8.7299551072
 C        -1.7882018078        0.9325478632       -9.1304196885
 C        -2.0175310863        2.4125908205       -5.0480260645
 C        -2.7622697083        2.2801851857       -3.7133323387
 C        -2.6780472887        3.4648513809       -2.6171973676
 C        -1.2837772775        3.4841873881       -2.0679259042
 C        -0.8551996147        2.4266875983       -1.0784896659
 C        -2.9484124420        4.7934419518       -3.2707295992
 C        -3.6883111338        3.1313468079       -1.4859234303
 O        -3.3577873458        1.2279235293       -3.4575076488
 O        -0.4810636345        4.3245912344       -2.5290733499
 C        -1.2648508102        0.9877683614       -1.2990469394
 C        -1.0547810744       -0.0000451693       -0.0802536608
 C        -1.1744307409       -1.5133050784       -0.2634806237
 C         0.1358055971       -2.1546741814        0.3632901323
 C         1.1929697071       -2.7636438765       -0.5527829256
 O        -0.8764862513        0.4322330342        1.0385624048
 O         0.2238765500       -2.2564796046        1.5606095592
 C        -2.3415793068       -2.1655652289        0.5615266047
 C        -1.4355083566       -1.9479457865       -1.8294215993
 C         2.5169777959       -3.2603233000        0.0002880131
 C         3.2816756130       -2.1385275856        0.7656589543
 C         4.3897806494       -2.4761358552        1.7720937930
 C         5.0164523980       -0.9989382977        2.1785439576
 C         4.1010508621       -0.1555520059        3.1495024570
 C         3.7350852103       -3.2173716790        2.9235326995
 C         5.5726781546       -3.2136866709        1.0791101258
 O         2.9769352541       -0.9660035824        0.5418587643
 O         6.0865745949       -0.6173641907        1.8397917413
 C         4.6727205688        1.2378487787        3.3414144470
 C         3.9578686748        2.0301874281        4.4484037299
 C         2.6933389917        2.9204863557        4.1374171662
 C         1.4032254632        2.0606611407        4.1811818385
 C         0.5363654971        2.0115124509        5.4097267459
 O         4.3283202397        1.9926962003        5.6374699183
 O         1.1330181644        1.2795711641        3.2887794605
 C         2.6621660399        3.9906221481        5.2560730985
 C         2.8719627586        3.5928963004        2.7264472993
 C         1.0973367536        1.0362436516        6.4099635503
 C         0.8384959077       -0.3511767367        5.7563344539
 C        -0.3688321408       -1.1748915971        6.3478491350
 C        -1.7353940550       -0.7739869825        5.7886992248
 C        -2.8892256376       -0.5287432785        6.6398448655
 C        -0.1638191926       -2.6600643216        5.8186002767
 C        -0.1945700532       -1.1688125687        7.9451277443
 O         1.6026756168       -0.8461523494        4.8998192407
 O        -1.7841832535       -0.6289504797        4.5917003139
 C        -4.0823807471        0.0763519530        5.8990907559
 C        -4.1277649610        1.5878192869        5.7012694241
 C        -5.2109378634        2.2304373167        4.8261062633
 C        -4.7477269254        1.8665171321        3.3833984119
 C        -3.9531347156        2.9337633791        2.6541772314
 O        -3.3076537842        2.2587515411        6.3155660001
 O        -4.9245638744        0.7467825854        3.0489649696
 C        -6.6038626666        1.4649948276        4.9996223253
 C        -5.3882025794        3.7191094986        5.3155260623
 H         3.4672596197       -5.9734843304       -8.3218104537
 H         2.9558269159       -5.2704315436       -6.6645757554
 H         2.2703017309       -6.7560191729       -7.2426860380
 H        -2.1169517110       -3.5267115533       -7.2747906875
 H        -1.3922009730       -2.8158789851       -5.7923693495
 H        -0.8894117789       -4.4273265722       -9.7399842983
 H        -2.0523550082       -5.2075211886       -8.6464155730
 H        -0.8684157973       -6.0741546118       -9.7482423028
 H        -0.3434057805       -6.8584521131       -6.2540677611
 H        -1.1851511340       -7.3823797993       -7.8249868104
 H         0.5619865304       -7.4714277221       -7.7079632558
 H         0.4995238801       -2.0366467496       -7.3410171931
 H        -0.3880265405       -2.6834914943       -8.6953133860
 H        -2.8561807844        1.1620030709       -6.6947975561
 H        -2.1248177436        0.1675990409       -5.3658109912
 H         1.3737003908        0.9837231038       -8.1145254621
 H         0.6805523261        0.9071828133       -9.7351716293
 H         1.1652110194       -0.5755970426       -9.0339917835
 H        -2.0321065430        0.1661454034       -9.8137802018
 H        -2.6406819588        1.3207492580       -8.6079989444
 H        -1.2738261789        1.6759825778       -9.7742583431
 H        -2.2512186436        3.3575926704       -5.6280406702
 H        -0.9378685418        2.5135668164       -4.8908535114
 H         0.2008866028        2.4878964487       -0.7070807117
 H        -1.3839447053        2.6739555924       -0.1668464054
 H        -2.4344519648        5.6466017938       -2.6852109013
 H        -3.9485213535        5.1891267382       -3.2589259374
 H        -2.6080477716        4.7618818954       -4.2743893711
 H        -3.1841552193        3.4274389037       -0.5248601576
 H        -4.6319882821        3.7718561364       -1.5108568831
 H        -4.0595339744        2.1692989909       -1.6036005239
 H        -2.2806129629        0.9251996636       -1.6994645888
 H        -0.6614592675        0.5510611060       -2.0207995108
 H         0.8547618951       -3.6003935621       -1.1128038307
 H         1.3861335597       -1.9315085954       -1.3017910543
 H        -3.2305486859       -1.3652035644        0.5697396066
 H        -1.9218822323       -2.3614195827        1.5395734994
 H        -2.6155714265       -3.0987190851        0.0312300008
 H        -0.4550873152       -1.9944888823       -2.3710445890
 H        -1.9277058904       -2.9660714037       -1.8611446731
 H        -2.2045958364       -1.2381969741       -2.1883816978
 H         3.1746798057       -3.5324692454       -0.8456357130
 H         2.4338389672       -4.2315231615        0.4425601474
 H         3.0569202536       -0.2286949745        2.9041755445
 H         4.2367175507       -0.5936791792        4.1569721457
 H         3.1814855492       -4.1238044761        2.5859666589
 H         3.1041843013       -2.5210661380        3.5400113407
 H         4.5146971414       -3.5900510937        3.6102729764
 H         5.9825548334       -4.1166029481        1.5944386790
 H         5.2185017405       -3.6935655357        0.1615344496
 H         6.2575529830       -2.4739609808        0.7435736309
 H         5.7159756456        1.2191005269        3.6323016271
 H         4.7758700955        1.8675941911        2.4267117004
 H         0.4125659280        2.8828558201        6.0026177409
 H        -0.5006321804        1.7037950279        5.0236262446
 H         3.6193281604        4.5417905989        5.3114420760
 H         2.6190308771        3.5234643031        6.1908807554
 H         1.9161744059        4.7998564726        5.1250908305
 H         3.7766906553        4.1937695401        2.8623546485
 H         3.1200349831        2.8702339742        1.9069557416
 H         2.0140292914        4.0875879893        2.4755122540
 H         0.5480251226        1.3330350939        7.3265638968
 H         2.1886836429        1.2222718872        6.4913559878
 H        -3.1262642122       -1.5267778886        6.9652119987
 H        -2.6205197797        0.0181371204        7.5232840471
 H        -0.5181314592       -3.3553214120        6.6239731657
 H         0.9048280612       -2.6220922716        5.5964109563
 H        -0.8173549636       -2.6814154858        4.9385233782
 H         0.8492373813       -1.0277426575        8.2141286944
 H        -0.8302365044       -0.3916329452        8.3021833878
 H        -0.6216263282       -2.0425893556        8.3944310745
 H        -4.1516651031       -0.5690405386        5.0111508281
 H        -4.9527875556       -0.3267143234        6.4353134083
 H        -3.1558189049        3.3928847480        3.2605544422
 H        -3.5028868328        2.6786784527        1.6724525706
 H        -4.5813167600        3.7513664090        2.3261066647
 H        -7.4323451938        1.9348086876        4.5198304118
 H        -6.7963506509        1.0820925600        5.9708973790
 H        -6.4731493597        0.6019134256        4.3769773430
 H        -5.7085257632        3.7621777311        6.3152471154
 H        -4.4509305685        4.3453066599        5.1324025474
 H        -6.0757202148        4.1513557481        4.4774463953
 Na       -0.2249679820       -0.5099371192        3.1911778192
