155

 C         2.9951389957       -4.9367644740       -7.2824571151
 C         1.7799164358       -4.4528963008       -8.0616695218
 C         0.3270003485       -5.0457452698       -7.8491138215
 C        -0.2285526921       -4.3269414749       -6.5510311994
 C        -1.1051029702       -3.1109479269       -6.7675604352
 C        -0.4402643695       -4.7491447531       -9.1441423768
 C         0.2806469953       -6.5705447153       -7.5533820471
 O         1.9415561863       -3.5362177049       -8.8322807071
 O         0.1882282116       -4.7528466722       -5.4579830258
 C        -0.3413688435       -1.9026044199       -7.3604685921
 C        -1.2852820249       -1.0240959865       -8.0780298924
 C        -0.8280479223        0.4367079733       -8.3002482202
 C        -0.8526400941        1.1010801871       -6.8857896713
 C        -2.2198297481        1.3955866763       -6.2877486361
 O        -2.3537425257       -1.4286664277       -8.4409340131
 O         0.1969077654        1.4971421253       -6.4090723544
 C         0.6253395368        0.5909287453       -8.8877751136
 C        -1.7792033186        1.1657477062       -9.2902612247
 C        -2.1107301889        2.7192951877       -5.3463558674
 C        -2.7800069074        2.3323960558       -4.0379887724
 C        -2.9482280194        3.2859164551       -2.8424491772
 C        -1.6179320015        3.1128317850       -2.1061047116
 C        -1.4239330658        2.2442069665       -0.8065341351
 C        -3.1664411709        4.7150888268       -3.3106292917
 C        -4.2157064006        2.9127936204       -2.2323883695
 O        -3.3077256510        1.2496815527       -3.9101341571
 O        -0.6191411649        3.6051967123       -2.6563939266
 C        -1.4367050441        0.7347726262       -1.2255575346
 C        -1.1082115863       -0.1079176178        0.0252678262
 C        -1.1324125557       -1.6516469992       -0.2681599667
 C         0.3015600089       -2.2410822106        0.2404963812
 C         1.2447342612       -2.9454999894       -0.6570378984
 O        -1.0602636535        0.3350005329        1.1484630530
 O         0.5650425990       -2.2196016768        1.4454964905
 C        -2.2232516994       -2.2685958797        0.7551422458
 C        -1.4851517778       -2.1444151312       -1.7090482286
 C         2.5234497629       -3.2071824709        0.0808928892
 C         3.1719784085       -1.9126400150        0.7368034022
 C         4.3267247604       -2.2642372417        1.8995049164
 C         4.9470450581       -0.9167337170        2.3437874878
 C         4.3672943294       -0.2591407828        3.6238761961
 C         3.6475482852       -2.9879386601        3.0965334685
 C         5.4176683765       -3.1857670311        1.2796342031
 O         2.8664906377       -0.7478320961        0.5907067958
 O         5.8927237815       -0.4562682882        1.7596946079
 C         4.4120255137        1.2597999430        3.4391214479
 C         3.6093873390        1.8885164648        4.5382012408
 C         2.6171918883        3.1079679533        4.2633107350
 C         1.2652770578        2.3519783761        4.3095885645
 C         0.3742259352        2.1682021560        5.5581211959
 O         3.6453524159        1.4852601897        5.7023963868
 O         0.8967598948        1.8570328859        3.2178401643
 C         2.7931650465        4.1973730536        5.2930174475
 C         2.6572942878        3.8450793536        2.8031427421
 C         0.8190681962        1.0851614340        6.5685455279
 C         0.6978711501       -0.3594454020        5.9113231968
 C        -0.3216797774       -1.5164187002        6.5532326997
 C        -1.6614573267       -0.9868379516        5.9322952031
 C        -2.8621226094       -0.9008114054        6.7846091812
 C         0.0102133080       -2.9322121533        5.9305682123
 C        -0.2582189649       -1.5474103796        8.0260312779
 O         1.2750157756       -0.6319716558        4.8648853992
 O        -1.8385876712       -0.7183767388        4.7438945153
 C        -4.0452315290       -0.3988145204        5.9616379367
 C        -3.9949904900        1.1279945028        5.7091754599
 C        -5.1217799013        1.6480441328        4.8069318680
 C        -4.2768384156        1.7619287235        3.3987334097
 C        -3.8242268455        3.0800294422        2.8765142147
 O        -3.0766268183        1.7832337580        6.2133677125
 O        -4.2416507131        0.6845909243        2.8610708452
 C        -6.2995600494        0.6845628787        4.6781307579
 C        -5.6649108494        3.0264070588        5.3053505207
 H         2.6975683918       -4.9536975604       -6.2749693209
 H         3.1684459646       -5.9174451491       -7.7399939056
 H         3.8385837091       -4.3097338269       -7.5009969443
 H        -2.0061383913       -3.3277583906       -7.3763895812
 H        -1.5406578348       -2.7196830882       -5.8669416819
 H        -0.3784749397       -3.7442371608       -9.4906893149
 H        -1.5376534314       -5.0751598010       -9.1963597326
 H         0.1032855118       -5.4219152885       -9.8413618430
 H         0.8924631741       -6.7962878030       -6.7293132617
 H        -0.7481888686       -6.7558135547       -7.5053456008
 H         0.6765273960       -7.0269512924       -8.4623565833
 H         0.2049111264       -1.4747001447       -6.5622206045
 H         0.3875993030       -2.2162093199       -8.1159984142
 H        -2.9579010847        1.4294500474       -7.0980020218
 H        -2.6711305702        0.6871778764       -5.5842866188
 H         0.9821414277       -0.3451531404       -9.3629150832
 H         1.3395678563        0.7999534693       -8.1285230930
 H         0.6443712716        1.4542200833       -9.5924858583
 H        -1.4731252077        0.8989079983      -10.2344469259
 H        -2.7572392160        0.6632653537       -9.1785519039
 H        -1.9375840574        2.2357110313       -9.0662001909
 H        -2.7859632887        3.4624192851       -5.8018095679
 H        -1.1105361966        3.3054427424       -5.1438905903
 H        -0.4947015060        2.3967768749       -0.2588454670
 H        -2.2805300866        2.6045525987       -0.1895001770
 H        -2.6749450207        5.4377101074       -2.7192369852
 H        -4.2834645120        4.8904837655       -3.4317011791
 H        -2.6768284679        5.0166290408       -4.2998389385
 H        -4.3157803786        3.4165535726       -1.2479294428
 H        -5.0106713229        3.3007738597       -2.8968145628
 H        -4.3167454183        1.8168141983       -1.9524000657
 H        -2.3130421317        0.5058561904       -1.7043860052
 H        -0.6866040667        0.6797692403       -2.0138467918
 H         0.8039493020       -3.9235476829       -0.9506309535
 H         1.4165078373       -2.4146617989       -1.5399138473
 H        -3.1573110069       -1.7207500956        0.5421733730
 H        -1.9746587173       -2.0702678083        1.7901724471
 H        -2.4580161375       -3.2597161336        0.5219813573
 H        -0.6968423169       -2.1783851185       -2.4561097226
 H        -1.7641454181       -3.1809188623       -1.6440500183
 H        -2.3000443252       -1.6323031305       -2.1713843591
 H         3.2346933216       -3.6388946188       -0.5963294666
 H         2.3899835116       -3.9758795187        0.8380214275
 H         3.3549569769       -0.5700070825        3.8949388655
 H         5.0028668743       -0.5567751694        4.5695569768
 H         3.0110226452       -3.7907231817        2.6124903183
 H         2.8949800492       -2.4494858919        3.6113003068
 H         4.3046894066       -3.5364736560        3.8355437638
 H         6.3902009302       -2.9553258061        1.7138941182
 H         5.1532555506       -4.2249999454        1.3134314539
 H         5.6127949015       -3.0031253611        0.2088581882
 H         5.4950363013        1.4994350073        3.3253302909
 H         3.8363923013        1.5502518325        2.5362273724
 H         0.3207173483        3.2521454323        6.0030094314
 H        -0.6284994606        2.0281764940        5.2337742136
 H         3.7649626493        4.6285040062        5.2611923835
 H         2.5867878176        3.7763334193        6.3165550025
 H         2.0299619846        4.9046835553        5.2941188789
 H         3.5516072587        4.4013588166        2.6699987819
 H         2.6275592066        3.0381174544        2.0951452661
 H         1.8387608077        4.5654482663        2.6020840331
 H         0.1290593511        1.0463388632        7.4055945323
 H         1.8840046370        1.1699449324        6.8349674889
 H        -3.1550094826       -1.9313758393        7.0793925343
 H        -2.6315422319       -0.4592678651        7.7414830171
 H        -0.9931392066       -3.3727393868        5.5538642617
 H         0.4264323589       -3.5040290685        6.7839194391
 H         0.8185924547       -2.7302033315        5.2372113084
 H         0.7975355801       -1.5118488519        8.3930576355
 H        -0.6309926936       -0.6899889330        8.4884027297
 H        -0.6800612264       -2.4509781948        8.4678727851
 H        -4.2189901658       -1.0231184342        5.0336233810
 H        -4.9438841763       -0.4551507114        6.6280329577
 H        -3.8978483229        3.8197379020        3.6578530207
 H        -2.8026519259        3.1033423507        2.3966243363
 H        -4.4905772198        3.5072570810        2.1276242029
 H        -7.2187600896        1.3503919886        4.6565906490
 H        -6.6276205707        0.2070210036        5.5568008799
 H        -6.2225454497       -0.0084104262        3.8509945144
 H        -6.3944928419        2.8363178843        6.0633357846
 H        -4.9121905104        3.5625407811        5.7841640048
 H        -6.3534349183        3.4710864709        4.5822294129
 Na       -0.1185318855       -0.2083793714        3.0032880078
