155

 C         3.2977542873       -2.2173217294       -5.8869820313
 C         2.6810157812       -2.3707041725       -7.3520961198
 C         1.8366214710       -3.6266923471       -7.6263081270
 C         0.6497878702       -3.6503680525       -6.6093091553
 C        -0.6535049310       -2.8141804370       -6.8844199657
 C         1.3792900824       -3.8056936649       -9.0746032522
 C         2.7783766514       -4.8522937944       -7.2497372056
 O         2.9157622290       -1.5832366968       -8.2266632662
 O         0.7327593936       -4.1784403237       -5.5274753025
 C        -0.2311152780       -1.3967900883       -7.2671863302
 C        -1.0527987090       -0.9136246161       -8.5278972751
 C        -0.7595018732        0.5926980581       -8.8784532832
 C        -0.8902391865        1.4512467711       -7.6284724301
 C        -2.2101276861        1.5904862866       -6.9743082561
 O        -1.7598387353       -1.6627147802       -9.1416748387
 O         0.1572921527        1.7843836545       -7.0838427971
 C         0.7002694889        0.6735021885       -9.3402634154
 C        -1.6463475875        1.1141440857       -9.9807045414
 C        -2.2612003603        2.5225803917       -5.6683948552
 C        -3.3398900854        1.9542997722       -4.7321964252
 C        -3.6584304302        2.7541522895       -3.4146150988
 C        -2.3066041153        2.6322147208       -2.5998820207
 C        -2.2640548780        1.8977285204       -1.2613556698
 C        -3.9738097403        4.2221340396       -3.6355127737
 C        -4.7741086764        2.0483065507       -2.6227812616
 O        -3.8651423373        0.8914478076       -4.8853638061
 O        -1.2842284901        3.2385380562       -3.0072908018
 C        -1.8676337375        0.4314861036       -1.3055091763
 C        -1.4807015115       -0.1059721644        0.0578394297
 C        -1.2975071825       -1.7672121906        0.2239135200
 C         0.1147406894       -2.1098090034        0.7184018024
 C         1.1760558940       -2.7247518233       -0.2408810849
 O        -1.2075216047        0.6537646350        1.0104205437
 O         0.4652809709       -2.0807505209        1.8726130484
 C        -2.3192431279       -2.3824299949        1.2308453774
 C        -1.5590400770       -2.3254092644       -1.2151139601
 C         2.5240373245       -2.9615101124        0.4017448622
 C         3.3217132970       -1.6792569302        0.9525760407
 C         4.7320372180       -1.8114558249        1.5568490968
 C         5.1274673978       -0.4332484190        2.4113366783
 C         4.1046251620       -0.0472560764        3.4342943412
 C         4.8207391306       -3.1079245307        2.3723376556
 C         5.7329160551       -1.8549329203        0.3885394734
 O         2.7859985484       -0.6076878363        0.7519039673
 O         6.1283220194        0.2153901513        2.1961845853
 C         3.7213662910        1.4503928791        3.5272961847
 C         3.5228907554        1.9971760199        4.9307880533
 C         2.2396127465        3.1222177817        5.0391281507
 C         0.9576068977        2.2832947159        4.7646554691
 C         0.0102650215        1.8292261425        5.9032906107
 O         3.9625623525        1.5814870158        5.9625024900
 O         0.6535307334        2.0215522638        3.6330153102
 C         2.3201400895        3.7186671275        6.4332186880
 C         2.4378828584        4.1843817070        3.9138131452
 C         0.5890202340        0.6985105423        6.8340556602
 C         0.5804740366       -0.7283410561        6.1548823864
 C        -0.3996292269       -1.7899994771        6.6526191431
 C        -1.7795933936       -1.6376345990        5.7353493961
 C        -3.0943150977       -2.1200321066        6.4491269022
 C         0.0481704955       -3.1926370611        6.3495668040
 C        -0.7170539977       -1.7166775263        8.1238736045
 O         1.1739011008       -0.9588700234        5.1111097729
 O        -1.7760824001       -1.0914906740        4.6272005821
 C        -4.3344890275       -1.6764104469        5.7291896879
 C        -4.3565980825       -0.1252099316        5.6183487633
 C        -5.4686413717        0.6170581065        4.7146829868
 C        -4.6860250717        0.6424237713        3.1730907814
 C        -3.7942783601        1.9471362041        3.0101104101
 O        -3.4521732186        0.4984279281        6.1881429196
 O        -4.7892655181       -0.2840317598        2.4480205776
 C        -6.7209088094       -0.2126197494        4.4750628743
 C        -5.8872158979        2.0441203883        5.2727319459
 H         2.7838759421       -1.2668007287       -5.4776846173
 H         3.1236206444       -3.1068664507       -5.3094690799
 H         4.2740613836       -1.8181247890       -6.0206652360
 H        -1.2888375568       -3.2717784810       -7.7022882804
 H        -1.3601898521       -2.8432809295       -6.0490800078
 H         0.7700940954       -3.0907906802       -9.5601827714
 H         0.9100424298       -4.8494493952       -9.1532492189
 H         2.2124138095       -4.0352370472       -9.6755779591
 H         2.7250477759       -5.0080984187       -6.1518912158
 H         2.3514118482       -5.7681773693       -7.6551368653
 H         3.8206673180       -4.5885113490       -7.5757666843
 H        -0.4196716255       -0.7174268365       -6.4104578038
 H         0.8460151489       -1.3081157312       -7.5109748447
 H        -2.8672459870        1.9348676052       -7.7653353427
 H        -2.5650948443        0.6443436830       -6.6160993941
 H         1.2039418517        1.5310645624       -8.8457143627
 H         0.6186953635        0.8457719977      -10.3777043603
 H         1.3870243117       -0.2170571443       -9.1412652837
 H        -1.3802090119        0.8820022737      -10.9843574174
 H        -2.7223013899        0.8364839543      -10.0114936538
 H        -1.6658970877        2.2410284803       -9.8657347690
 H        -2.4319262177        3.5722979227       -5.9395811156
 H        -1.3280014006        2.5302623245       -5.1719896549
 H        -1.5629335795        2.4962573242       -0.6072775596
 H        -3.2620129826        1.8949722523       -0.7350018315
 H        -4.3193022429        4.8424240746       -2.7730273487
 H        -4.7688389230        4.1879342831       -4.3286351216
 H        -3.0930281028        4.6495981259       -4.0074463575
 H        -4.9634174760        2.4347358378       -1.6457419144
 H        -5.6563046863        2.1497784954       -3.2629972326
 H        -4.5580015200        1.0706590867       -2.4458712244
 H        -2.7918680507       -0.0259443898       -1.6072050196
 H        -1.0361555779        0.1193589153       -1.9118552188
 H         0.8056638876       -3.6610327444       -0.7469063925
 H         1.2122388774       -1.9121088656       -1.0040775528
 H        -3.3130150675       -1.9616959888        1.1859508277
 H        -1.9577340824       -2.0201431297        2.2574972792
 H        -2.4120391670       -3.5151726613        1.1756761759
 H        -0.9185867846       -1.8463950731       -2.0073245258
 H        -1.5182359517       -3.4263263635       -1.1632493699
 H        -2.6267984371       -2.1424418211       -1.4726864207
 H         3.1670749940       -3.3017732032       -0.3830325684
 H         2.5103421184       -3.8767980937        1.0490509554
 H         3.2069990336       -0.6664540719        3.4518818314
 H         4.6511142574       -0.4048208608        4.3663097181
 H         4.6046691836       -3.9314283774        1.6727900308
 H         4.0870613816       -3.1719328513        3.1017917049
 H         5.8502678650       -3.2763806150        2.7028171306
 H         6.7347602035       -1.9289221284        0.7817571731
 H         5.4762711319       -2.6648083497       -0.2761298548
 H         5.8030166228       -0.9088506730       -0.1299416462
 H         4.4229548769        2.1120438628        2.9820005388
 H         2.8079305181        1.5319994414        3.0457280120
 H        -0.1368770234        2.7023934363        6.6449807575
 H        -0.9472050716        1.5709203988        5.4991469479
 H         3.0675575107        4.4778596552        6.5208345217
 H         2.5324771393        2.8812976980        7.1416910214
 H         1.3832407944        4.0262294372        6.7917755650
 H         3.3911937804        4.6513547611        3.9600066884
 H         2.2213043320        3.8538054586        2.8900367129
 H         1.8360335868        5.0757611846        4.1558430613
 H         0.0099661790        0.7472967595        7.7571322154
 H         1.5946351413        1.1082444673        7.1313610665
 H        -3.0787227082       -3.1817872875        6.4763922971
 H        -3.0642054291       -1.7044759417        7.4342978885
 H        -0.0894584732       -3.3938593124        5.2623027530
 H        -0.5670612625       -3.9283325326        6.7823967161
 H         0.9833946535       -3.4484499002        6.7113673488
 H         0.2201973320       -1.6200524330        8.7876988156
 H        -1.3231638282       -0.9222441800        8.4680471161
 H        -1.2094418416       -2.6667406165        8.4373650733
 H        -4.4530523673       -2.0939838579        4.7215695293
 H        -5.2364244099       -2.0077868944        6.3104199082
 H        -3.2344049588        2.0326418515        2.1043479079
 H        -4.4730306193        2.8307468704        2.9653241902
 H        -3.1672076141        2.0798715403        3.8640147425
 H        -7.5647302122        0.3222686183        3.9672974182
 H        -7.1126008691       -0.3837156554        5.4273032924
 H        -6.4626449900       -1.0889184760        3.9105733186
 H        -6.3880789995        2.0420427826        6.2392461138
 H        -4.8980234282        2.5912641514        5.5054384385
 H        -6.6939306098        2.5318372914        4.6574041239
 Na        0.0641448667       -0.0421103954        3.0316693638
