155

 C         3.2039866487       -1.8556811203       -5.8345461889
 C         2.8833267779       -2.2677715124       -7.2561195264
 C         2.1208541424       -3.5924133600       -7.5248223469
 C         0.8283663139       -3.5633313813       -6.4951904122
 C        -0.4555475275       -2.9703858137       -6.9953042366
 C         1.5816864303       -3.5188226011       -8.9390885789
 C         2.9857391088       -4.8202795313       -7.1960780564
 O         3.1208927160       -1.5516588261       -8.2140817721
 O         0.8904550614       -4.0826620239       -5.3730276254
 C        -0.4156440545       -1.4293895010       -7.2377134726
 C        -1.0334787782       -0.8643296005       -8.5732695935
 C        -0.6497031984        0.6307126221       -8.9478808408
 C        -0.8941467643        1.4420765930       -7.6674563090
 C        -2.3418117516        1.6722895912       -7.1945330068
 O        -1.7839393852       -1.4934291868       -9.2804848212
 O        -0.0076201939        2.0215149044       -7.0428563367
 C         0.7422762906        0.8181269695       -9.5796114732
 C        -1.6226247129        0.9918895791      -10.0865359438
 C        -2.3920023874        2.3459855300       -5.8175042260
 C        -3.2964315865        1.7846619339       -4.6509933824
 C        -3.5871263139        2.7101790477       -3.2851542847
 C        -2.2766393028        2.6333516339       -2.3624068231
 C        -2.1423555099        1.9173823263       -0.9910837138
 C        -3.9616786150        4.1432326314       -3.5574466693
 C        -4.8073361894        2.0172547325       -2.6598747639
 O        -3.8066336524        0.6604836463       -4.7739085674
 O        -1.3571156689        3.2039220019       -2.8296152164
 C        -1.8097596109        0.4498177241       -1.2634908520
 C        -1.3380625825       -0.2594757342        0.0315037219
 C        -1.2234323548       -1.8342864479        0.1030487850
 C         0.1686807124       -2.1714423751        0.6791463256
 C         1.2381091508       -2.7752522978       -0.2102214059
 O        -1.1167356889        0.3792322799        1.0066443437
 O         0.4274502034       -1.8255527837        1.8240224446
 C        -2.3507150366       -2.0606131056        1.1708397101
 C        -1.6248217798       -2.6989165493       -1.2110196287
 C         2.6665130159       -2.8485986992        0.4360244157
 C         3.2467962280       -1.5303162534        0.8210103438
 C         4.6510648371       -1.5604004480        1.4335944525
 C         4.9815020255       -0.3514945149        2.3174984980
 C         4.2601408966       -0.0904385318        3.6388837687
 C         4.9481002252       -2.7661134774        2.4522529117
 C         5.6782335055       -1.6495106572        0.3168842225
 O         2.6439479978       -0.4433210802        0.7973458540
 O         5.9644645148        0.3075069409        2.0529915468
 C         3.8433876590        1.3912909358        3.5887604481
 C         3.3349562767        1.8379211884        4.9627641326
 C         2.2251083738        3.0021190395        5.0641736437
 C         0.9049523891        2.2946366686        4.7752178296
 C         0.1002430488        1.6308822607        5.9136599832
 O         3.7095150315        1.2676670357        5.9570279233
 O         0.5768856640        2.1520794553        3.5785526016
 C         2.2065277949        3.6096660432        6.5186454285
 C         2.6321447549        4.1087290155        4.1023680156
 C         0.8921643997        0.5477889700        6.7275124880
 C         0.6826597935       -0.8127365321        6.1161880306
 C        -0.4026418041       -1.7318041563        6.6134689109
 C        -1.7123506138       -1.6044468642        5.7425865411
 C        -3.1042925944       -2.2193767311        6.2169568717
 C         0.0411711909       -3.1737329910        6.2582130943
 C        -0.6679197658       -1.6595476407        8.1334782412
 O         1.2166462840       -1.0413890610        5.0348992604
 O        -1.5651402924       -1.2314343656        4.6259004879
 C        -4.3310307327       -1.6129112723        5.4253388645
 C        -4.5738126594       -0.0533195069        5.5837315347
 C        -5.7169147165        0.5726018613        4.7653044622
 C        -4.8325651052        0.5418166463        3.3710623684
 C        -4.0643464874        1.9312007620        2.9921088956
 O        -3.6992970599        0.6572601213        5.9659692063
 O        -4.7329901003       -0.4873034118        2.7398346131
 C        -6.9930308459       -0.3890924298        4.5964357225
 C        -6.0194346884        1.9682067118        5.1831393257
 H         2.4461417001       -1.3210537532       -5.3944675952
 H         3.3028300606       -2.8314403076       -5.3399145743
 H         3.9797109188       -1.1143961829       -5.8924386783
 H        -0.8202522732       -3.4382407428       -7.8806350115
 H        -1.3114103020       -3.2438759527       -6.3375029886
 H         1.1310103682       -2.5152918717       -9.0333732801
 H         0.9708127046       -4.3132426312       -9.2127634233
 H         2.3272698115       -3.5354732317       -9.7775592577
 H         3.0012182141       -5.1503432524       -6.1636896311
 H         2.4624122176       -5.6466014584       -7.7104773076
 H         3.9524999690       -4.6373579428       -7.6327194772
 H        -0.9544235355       -0.9903060136       -6.4188579838
 H         0.5604198658       -0.9855465547       -7.3134274050
 H        -2.9934547746        2.1879422847       -7.9479948449
 H        -2.7576814928        0.6406306879       -7.0386315679
 H         1.2638477030        1.5801002417       -8.9558328535
 H         0.7255377593        1.1453527953      -10.6283453792
 H         1.2829946388       -0.1022643233       -9.5173754382
 H        -1.4831869709        0.1980178419      -10.8234769088
 H        -2.6931111445        1.0787050294       -9.9135490898
 H        -1.4620666382        1.9172664939      -10.5494940410
 H        -2.6856364893        3.3984209443       -6.0064606978
 H        -1.3309851020        2.4700283054       -5.3526860276
 H        -1.4140787821        2.3510975196       -0.3532454243
 H        -3.0949316087        1.9779031327       -0.5258262621
 H        -4.1067416488        4.6816327374       -2.6284007082
 H        -5.0145143691        4.1846444267       -4.0177837980
 H        -3.0889251081        4.5690784151       -4.2107561566
 H        -5.2152895454        2.5583141647       -1.7988631748
 H        -5.5066428830        1.9033921951       -3.4662306921
 H        -4.5366786583        0.9623155817       -2.2085186837
 H        -2.7731579976       -0.0109958249       -1.5772956338
 H        -1.0649287746        0.3081911034       -2.0614203134
 H         0.8424242176       -3.7527992981       -0.3794613855
 H         1.1635660043       -2.1696927766       -1.1003984813
 H        -3.2221764177       -1.3296685362        1.0895462904
 H        -2.0250997063       -1.8752167933        2.1285532566
 H        -2.7044109397       -3.0253909567        1.0628342770
 H        -1.0644295831       -2.3436376724       -2.0659858285
 H        -1.5226713268       -3.7856998977       -0.9848985525
 H        -2.6820405958       -2.5407994508       -1.4422848822
 H         3.3978091053       -3.5035406083       -0.0932025734
 H         2.6297997205       -3.3584193513        1.3725649130
 H         3.3202365753       -0.6931681571        3.7653031475
 H         4.7874830715       -0.2647460000        4.5836796487
 H         4.9166826905       -3.6832004532        1.9167058604
 H         4.2130553278       -2.7566386280        3.3111755243
 H         5.9501388599       -2.6820784564        2.7977007176
 H         6.6646480985       -1.9222429478        0.6468507352
 H         5.2811823239       -2.3917874145       -0.3880291959
 H         5.8647427273       -0.6653618100       -0.1226129583
 H         4.6577646369        2.0842041075        3.3082385032
 H         2.9777328727        1.4867948126        2.8114908708
 H        -0.2022033280        2.4496806358        6.5000266760
 H        -0.8662592267        1.1325760842        5.5886520615
 H         3.1398247629        4.1789773388        6.5762539285
 H         2.0705674071        2.9340981936        7.3497504071
 H         1.3242607821        4.3197004805        6.6383401820
 H         3.6796308551        4.4393755458        4.3356126617
 H         2.6056405588        3.7910399289        3.0723764275
 H         2.0201474433        5.0170004483        4.1801957764
 H         0.5080405673        0.5083588540        7.7752420853
 H         1.9347543409        0.8145923757        6.7519722043
 H        -3.1000128162       -3.3196026688        6.0006945829
 H        -3.2439018944       -2.0215648458        7.2980095554
 H        -0.0091502543       -3.5290808781        5.2351947010
 H        -0.5149757835       -3.9737487068        6.8367173512
 H         1.1311291124       -3.2599367373        6.6059074724
 H         0.1445289160       -2.0416984931        8.6720447687
 H        -0.7506747232       -0.5915561018        8.4516331978
 H        -1.6070115779       -2.0661269809        8.4711601789
 H        -4.2294364494       -1.6254135831        4.3284781300
 H        -5.1431377990       -2.2898420953        5.6497279778
 H        -3.3130034169        1.9154115594        2.1750738948
 H        -4.7862793174        2.6729794147        2.6914324438
 H        -3.6206923409        2.3536327065        3.9511822563
 H        -7.5074498475       -0.2325959590        3.6715848509
 H        -7.6667634914       -0.2100452852        5.4782939104
 H        -6.7415966554       -1.4202531229        4.4394324956
 H        -6.8186684258        1.9614821595        5.9215000943
 H        -5.2567957418        2.3562085186        5.7566276879
 H        -6.4904200234        2.5371665723        4.4339177444
 Na       -0.1185164829       -0.1156453666        3.0300896145
