155

 C         3.2896530913       -1.5176047784       -5.6908463070
 C         3.1703829649       -1.8839106451       -7.1848968187
 C         2.3818196159       -3.2145135213       -7.3945253568
 C         1.0669752604       -3.2641063139       -6.5907797885
 C        -0.3375236806       -2.9217198335       -7.0980416773
 C         2.1556497133       -3.3265152769       -8.9414592717
 C         3.3056010833       -4.3860465496       -6.8741719655
 O         3.7329787757       -1.2370842889       -8.0240484000
 O         1.1803461821       -3.5615481475       -5.4010596912
 C        -0.3787095976       -1.3817091281       -7.2212858299
 C        -1.0613865730       -0.8663370187       -8.5022069677
 C        -0.8592460495        0.6434943699       -8.9319959843
 C        -1.1015616271        1.4857753306       -7.6020272728
 C        -2.5128154439        1.4848714320       -7.0324917320
 O        -1.6202143647       -1.6023241914       -9.2569418505
 O        -0.2890541023        2.3201968817       -7.1852490352
 C         0.6854449840        0.8172461994       -9.3821678137
 C        -1.7914756800        1.1123367729      -10.0200396799
 C        -2.6320745079        2.3848254961       -5.8167669865
 C        -3.2546262888        1.6627960604       -4.6613303904
 C        -3.5863907447        2.5100156726       -3.3351418575
 C        -2.2114815472        2.5005213220       -2.5269684280
 C        -2.0286112043        1.7292100008       -1.1400908997
 C        -4.0741690489        4.0400346337       -3.6131944512
 C        -4.7363960140        1.8219610823       -2.5936826430
 O        -3.1534943564        0.4657401858       -4.4995857731
 O        -1.2803437587        3.1765823801       -2.9320872607
 C        -1.6826362107        0.2622908511       -1.3001064716
 C        -1.2588345505       -0.3454602677        0.0325555715
 C        -1.2195866686       -1.8332728395        0.1577381899
 C         0.1832485135       -2.2191232826        0.8977457578
 C         1.2299935084       -2.6777435215       -0.1996902622
 O        -0.9932629931        0.3803176071        0.9832782015
 O         0.3413309371       -2.0367552943        2.0972824412
 C        -2.1923466641       -2.4126466489        1.2118410162
 C        -1.4098689305       -2.6412121797       -1.1821835864
 C         2.6878938266       -2.8037823352        0.4435938938
 C         3.2607361533       -1.4819655681        0.8831107686
 C         4.7892220872       -1.4328730836        1.2975312090
 C         5.0056469497       -0.1342218311        2.0604154585
 C         4.4110169357        0.0550187871        3.5233697333
 C         5.2568359874       -2.6793362049        2.1578092966
 C         5.6483164614       -1.3507406086        0.0066290109
 O         2.6233058626       -0.4327950977        0.7930312782
 O         5.5846748158        0.7737809841        1.5079774905
 C         3.9627853179        1.4921583445        3.7324831573
 C         3.4703978451        1.8168652188        5.1202703536
 C         2.3042647141        2.9524472250        5.2413500021
 C         0.9843659249        2.2358609718        4.9657674062
 C        -0.0050950752        1.6737643207        6.0181938767
 O         3.7302090370        1.1433835624        6.0749656492
 O         0.7601999160        1.7170089955        3.8560702805
 C         2.3335217428        3.5934359076        6.6524624837
 C         2.4721784330        4.0877295212        4.2106191891
 C         0.5704114405        0.5100052524        6.7867986958
 C         0.4466330370       -0.8475242154        5.9866589969
 C        -0.4816882808       -2.0385368321        6.4077790597
 C        -1.8681183395       -1.6750870199        5.7134414854
 C        -3.1844464721       -2.1225802739        6.4090021939
 C         0.0560089278       -3.3111266751        5.9439640848
 C        -0.7773713968       -2.0311845506        7.9857680460
 O         1.1095125370       -0.9387108428        4.9678523858
 O        -1.9570068729       -1.2503616363        4.5872147104
 C        -4.3822750656       -1.7566172675        5.6350917125
 C        -4.6084865640       -0.2748889756        5.6166177765
 C        -5.8236049157        0.2868955965        4.5831972579
 C        -5.2490553175        0.4919960139        3.1149621254
 C        -4.7762598097        1.9296002764        2.5673883015
 O        -4.1329257458        0.4784510963        6.4254415732
 O        -5.1252828275       -0.4934040489        2.4679802254
 C        -6.9519323688       -0.7083316398        4.5901909611
 C        -6.3049640295        1.7392172338        5.1327261725
 H         2.4116551701       -1.8095468641       -5.1389696241
 H         4.1096989684       -2.2007518361       -5.3271343464
 H         3.3978664898       -0.4899010960       -5.6432172468
 H        -0.4423975318       -3.5542744742       -7.9890572984
 H        -1.0474895516       -3.3653599042       -6.3202526463
 H         1.4879188468       -2.5770180480       -9.3030546354
 H         1.7304370647       -4.2933870301       -9.2350265569
 H         3.0224101713       -3.0507190376       -9.5505800024
 H         3.4743491416       -4.2618632024       -5.7753833957
 H         2.8053326968       -5.3834309569       -7.0219131189
 H         4.2540205055       -4.4310817498       -7.4648585785
 H        -0.8887076646       -0.9827463755       -6.3423478948
 H         0.6364699450       -0.9634397377       -7.1753590437
 H        -3.2465208484        1.5998096204       -7.8344022620
 H        -2.6894305776        0.4668115821       -6.6729141248
 H         1.2313855250        1.2424614364       -8.4511501429
 H         0.8140980706        1.5821839972      -10.0652097702
 H         1.1097439411       -0.0889606568       -9.8356651822
 H        -1.5057798138        0.7635676891      -10.9540695201
 H        -2.9111270492        0.8983753217       -9.8275341883
 H        -1.8002180569        2.1850486427      -10.1628776929
 H        -3.1767334206        3.3263950290       -5.9432142633
 H        -1.5504819862        2.6983955609       -5.5864484129
 H        -1.1304638102        2.2274233358       -0.7263216524
 H        -2.8002136466        1.8584010123       -0.3642984529
 H        -4.6351265899        4.2793472054       -2.7628653514
 H        -4.7999025441        3.9741630376       -4.4865511521
 H        -3.2778604153        4.6980285043       -3.9810877625
 H        -5.0411776382        2.3248169107       -1.7142094211
 H        -5.5574939574        1.7748875695       -3.2727596927
 H        -4.5053673184        0.7361379141       -2.5197195394
 H        -2.4731972250       -0.3553129598       -1.7593048028
 H        -0.8832359211        0.2012351785       -2.0006478201
 H         0.9778994501       -3.6021363368       -0.6684030270
 H         1.1697118789       -1.7950330950       -0.8354719499
 H        -3.2456726285       -2.7025118528        0.8480294408
 H        -2.3015296968       -1.8417570842        2.1285527919
 H        -1.6506547349       -3.2813709593        1.4816650617
 H        -0.9212462075       -2.1274155632       -2.0472696367
 H        -0.9688454528       -3.6945653622       -1.0462727743
 H        -2.5048088702       -2.6328177134       -1.2330847655
 H         3.4551082342       -3.2477844791       -0.2321749018
 H         2.7139803785       -3.4502931191        1.2780528058
 H         3.5021796191       -0.6193034165        3.7150649597
 H         5.1175297741       -0.2992624680        4.3209445292
 H         5.1032914655       -3.5840906277        1.6428981230
 H         4.7664345870       -2.6408081646        3.1493744673
 H         6.2695189660       -2.5354004945        2.4250015229
 H         6.6203064377       -1.0813986145        0.3008052978
 H         5.7347317775       -2.3546382750       -0.4444038392
 H         5.2496911328       -0.6325077941       -0.7286481913
 H         4.8428125315        2.1415740652        3.5018830051
 H         3.2111665134        1.7545166436        2.9163609331
 H        -0.3186587018        2.2804802710        6.8169295611
 H        -0.9890543423        1.5582531088        5.4475596262
 H         3.1519938204        4.2360666041        6.8543178945
 H         2.4522694933        2.7153835128        7.3318134042
 H         1.3695216590        4.1161978798        6.8306181473
 H         3.5161359194        4.3975632199        4.1414712790
 H         2.1783640301        3.8749413678        3.2102977101
 H         1.7426953525        4.8825916592        4.4773621034
 H         0.0087618757        0.4572061110        7.7218015351
 H         1.6293111989        0.6247960258        6.8982301765
 H        -3.0531815002       -3.1987041574        6.4724266389
 H        -3.1852509284       -1.6920783857        7.3926599123
 H         0.7196798270       -3.3558332845        5.0644134855
 H        -0.7431699354       -4.0003215844        5.8171470556
 H         0.7242160880       -3.6846253853        6.6801530920
 H         0.0369005294       -2.4248339614        8.5838122086
 H        -1.0278815584       -1.0000433121        8.2139987139
 H        -1.6774177345       -2.5822005646        8.2502994012
 H        -4.3288872913       -2.3039532412        4.6847878010
 H        -5.2863849932       -2.1473893603        6.1045040881
 H        -4.0081164004        1.7934161749        1.8184876568
 H        -5.6191561376        2.4430969538        2.1479243497
 H        -4.4852558248        2.7041896322        3.3508268060
 H        -7.8650109748       -0.3059753526        4.2194059267
 H        -6.9491513401       -1.3184730233        5.4764099102
 H        -6.6974374121       -1.3892404530        3.8230451648
 H        -6.6420804424        1.6476493431        6.1206957374
 H        -5.4725079545        2.4855855326        5.2267079170
 H        -7.1226389427        2.1838210466        4.4793254192
 Na       -0.2200611902       -0.0589337336        2.9135294461
