155

 C         5.1608881923        0.1829588629       -5.1459587939
 C         4.6201670155       -0.3948795286       -6.4336857921
 C         4.0531358815       -1.8132999702       -6.4794820589
 C         2.5116165918       -1.5819768424       -5.8626607969
 C         1.3872412903       -1.6535081871       -6.8452432996
 C         4.1385733492       -2.3661667286       -7.9628716631
 C         4.7910711849       -2.7473497396       -5.4865513319
 O         4.6212722499        0.3476150673       -7.3701288250
 O         2.4050931667       -1.3638163175       -4.6848251881
 C         0.9650219345       -0.4179407135       -7.6293490811
 C        -0.4405418382       -0.7291210182       -8.2597949058
 C        -1.2217211873        0.4570243303       -8.8765300564
 C        -1.7166628365        1.4890015903       -7.7453350559
 C        -2.1658119677        0.7997384964       -6.3600932888
 O        -0.8333681132       -1.8312694891       -8.4874548350
 O        -1.5657715035        2.7071899431       -7.7373398511
 C        -0.1693784040        1.0663416683       -9.7923246484
 C        -2.3823800460       -0.0652902448       -9.7519506910
 C        -2.8127353340        1.7581395592       -5.3442781892
 C        -3.1198250725        1.0989582634       -3.9168454244
 C        -3.6143966448        2.0958749874       -2.8416802956
 C        -2.1167624615        2.6269555756       -2.2912806606
 C        -1.5505916517        2.0262374832       -1.0440563921
 C        -4.3665162381        3.2680218289       -3.3456280119
 C        -4.3535705477        1.2303851048       -1.7126437261
 O        -2.8818628721       -0.0738519291       -3.5375260666
 O        -1.5817292232        3.4786884487       -2.9718668875
 C        -0.8087154348        0.6284712512       -1.2797814992
 C        -0.9195458068       -0.2564987256       -0.0914448787
 C        -0.5055840456       -1.8238993403       -0.2121905829
 C         0.8718888518       -2.1873597345        0.5137556929
 C         1.9471674530       -2.9265874824       -0.2717381065
 O        -1.1017456124        0.2402219525        1.0408875156
 O         1.0394981510       -1.8523649080        1.6841242621
 C        -1.5696630633       -2.6263312107        0.5190952540
 C        -0.5022558730       -2.4189412754       -1.7024443976
 C         3.3797431774       -2.4858195331        0.2206114148
 C         3.5544134697       -1.0663193637       -0.0834815944
 C         4.8293843471       -0.3985386716        0.2904751595
 C         4.6080061694        0.8221038474        1.3040680228
 C         4.1582462826        0.4935671854        2.7629186678
 C         5.8629659698       -1.3046072814        0.9620207390
 C         5.4081609215        0.2119940083       -1.0986610092
 O         2.6892032730       -0.4531510835       -0.6869542768
 O         4.7751866298        1.9963666061        1.0869966705
 C         3.6008329019        1.7555078607        3.5253106197
 C         2.9732559787        1.5718531341        4.8633680769
 C         1.6890822302        2.4903086015        5.4747291016
 C         0.5333435225        1.4866384994        5.2058524800
 C        -0.3843961250        0.9524187256        6.4321298472
 O         3.3635412667        0.7797080665        5.6491517826
 O         0.2940445618        1.1334049347        4.0728283945
 C         2.0154443732        2.8016793297        7.0243580892
 C         1.5136619357        3.8167334785        4.7253789197
 C         0.2142148225       -0.2805041835        7.0357781527
 C         0.0075940669       -1.4633159993        5.9738566221
 C        -1.1317900114       -2.4995687179        6.2679584242
 C        -2.4724628938       -2.0807648138        5.6343847377
 C        -3.7819572297       -2.8461105321        6.1422549195
 C        -0.7369337656       -3.8361100414        5.3775928878
 C        -1.2093743856       -2.8185677462        7.7698326606
 O         0.7254890268       -1.5614548238        5.0015376788
 O        -2.5157266471       -1.4206259453        4.5731103022
 C        -4.9536310242       -2.3980078779        5.2470555618
 C        -5.5815458623       -1.0188992510        5.4986497049
 C        -6.8738149429       -0.6914564717        4.5881609286
 C        -6.3027270436       -0.4560554119        3.0755397014
 C        -6.3968344620        1.0054135098        2.4453607178
 O        -5.0257288632       -0.2494339721        6.1773480631
 O        -5.7968869611       -1.2849931306        2.3600017770
 C        -8.1239634740       -1.8061313768        4.3158647443
 C        -7.6110907446        0.6003189592        5.0701158183
 H         4.3721176759        0.4697803209       -4.5251462339
 H         5.6723521974       -0.6264220147       -4.5913845593
 H         5.5500577212        1.1214477129       -5.3973881837
 H         1.6064753016       -2.4468659470       -7.5763232181
 H         0.4838887592       -1.9228946974       -6.3030903908
 H         3.2292921361       -1.9527465683       -8.4691951790
 H         4.0451993878       -3.3865477903       -7.9581940815
 H         5.1291698444       -2.0564616851       -8.3104596159
 H         5.0740726588       -2.2175425241       -4.5696655860
 H         4.3349861590       -3.6486216789       -5.1173138284
 H         5.7519886785       -3.1261139731       -5.7820481082
 H         0.8858315280        0.5637206899       -7.1896748188
 H         1.6002711970       -0.2162448385       -8.5252068226
 H        -2.9180902873        0.0474262572       -6.4925522336
 H        -1.2925138851        0.3176517507       -5.9909659480
 H         0.3617855093        1.8875108586       -9.2260674627
 H        -0.5908684914        1.4733014429      -10.7236667424
 H         0.5242867043        0.3350672887      -10.0613201900
 H        -2.0226957017       -0.7054385964      -10.5882661341
 H        -3.1013087095       -0.6341512506       -9.1383539694
 H        -2.7735272187        0.8713650096      -10.0228599620
 H        -3.6996935450        2.2889738957       -5.6845250425
 H        -2.0216368454        2.4990076547       -5.1359532001
 H        -0.8273108483        2.6751285115       -0.5526089226
 H        -2.3191584021        1.9076080213       -0.3556585023
 H        -4.3424551790        4.0744013108       -2.6353542099
 H        -5.3452425691        2.9134383065       -3.6518497225
 H        -4.0181260335        3.7648790463       -4.2691405107
 H        -4.7670069932        1.7608177998       -0.9197390171
 H        -5.2262577413        0.8750852775       -2.1028192482
 H        -3.6809927280        0.4356600294       -1.3629655944
 H        -1.3351692478        0.2199878179       -2.2045356627
 H         0.2067249485        0.8877801786       -1.4770965919
 H         1.7873841192       -3.9859142114       -0.1524176509
 H         1.9408560850       -2.8466926745       -1.3423448107
 H        -2.5293933283       -2.2416056178        0.0820967645
 H        -1.5897973853       -2.6018205574        1.6015553240
 H        -1.5334945782       -3.6729960874        0.3280216217
 H         0.3506680133       -2.0228937515       -2.2923003197
 H        -0.4171595159       -3.5102020098       -1.8159927876
 H        -1.4036718234       -2.0629761554       -2.2601175292
 H         4.1421932508       -3.1515612850       -0.0806866371
 H         3.5235469833       -2.4454830908        1.3231626951
 H         3.2987338855       -0.2965473742        2.7735003700
 H         5.0377364156        0.1099649819        3.3495826089
 H         5.9661240693       -2.2955337653        0.4194867093
 H         5.4536184409       -1.5575221477        1.9332390365
 H         6.8792894843       -0.8617732968        1.1245317763
 H         6.3257482934        0.8061420820       -0.8119522536
 H         5.7885232007       -0.5520686342       -1.7510184571
 H         4.6310382189        0.6438928899       -1.6991474630
 H         4.4395524111        2.5102863988        3.7295036838
 H         2.8978824485        2.2541090582        2.8830389217
 H        -0.6182761043        1.6751714264        7.2441776338
 H        -1.3562643739        0.7097818785        6.0692252058
 H         2.9547358745        3.3965920789        7.0941627497
 H         2.1690937539        2.0409634854        7.6966338949
 H         1.2233855786        3.4314797666        7.3244818799
 H         2.4640658586        4.2526230860        4.4133350219
 H         0.8600298241        3.6407657914        3.8399256138
 H         1.0045110252        4.5477786472        5.3227971625
 H        -0.2327108978       -0.5016842701        7.9834703346
 H         1.2987484226       -0.0194693746        7.0755094118
 H        -3.4695851611       -3.8507625910        5.9221382846
 H        -3.9797555525       -2.6474526328        7.2147177960
 H        -0.7287336393       -3.5945211351        4.3433022895
 H        -1.3962656933       -4.6375962717        5.5771561299
 H         0.2545038862       -4.1942464634        5.5561246127
 H        -0.2709182813       -2.9562921917        8.1970491339
 H        -1.8643550642       -2.0444780795        8.3122104764
 H        -1.6518167188       -3.7873676753        7.7735321119
 H        -4.7700519975       -2.4424916531        4.1898044160
 H        -5.7693124439       -3.1326352787        5.3671938678
 H        -5.6284816425        1.0304025144        1.6600739827
 H        -7.3890680036        1.0701954334        2.0003365049
 H        -6.3361003904        1.8283480692        3.1423514743
 H        -8.8353333088       -1.2387679940        3.7724762756
 H        -8.5701303750       -2.1277600501        5.2206398302
 H        -7.6776531835       -2.7093839445        3.9048445931
 H        -8.2551124348        0.3012599666        5.9202955031
 H        -6.7964837110        1.2082450699        5.4231425670
 H        -8.1708854868        1.2735285213        4.4708227899
 Na       -0.5015192592       -0.8585247439        3.0601302059
