155

 C         4.9478133498        2.4711995011       -6.1229983739
 C         4.7017171845        1.0276833634       -6.7335513810
 C         5.0475944434       -0.2036993086       -5.8192248375
 C         3.5943541255       -0.4321931445       -5.0813648865
 C         2.5261200343       -1.1123400888       -5.8957722457
 C         5.4560821684       -1.3403932974       -6.7767221196
 C         6.0731286512        0.1379675297       -4.7384513023
 O         4.0481079094        0.8418044114       -7.7680030398
 O         3.4472674339       -0.0395375965       -3.9441623538
 C         1.5123630939       -0.1474226450       -6.4744992169
 C         0.4013831505       -0.8159071123       -7.2318037478
 C        -0.5618635076        0.0661898133       -8.0961195651
 C        -1.3099315776        0.9894305393       -7.0540997003
 C        -2.5949915409        0.5599989228       -6.4789312527
 O         0.1033457772       -2.0025865462       -7.0078458208
 O        -0.6772726907        1.9453927504       -6.5987641768
 C         0.3365380347        0.7449190789       -9.1200861485
 C        -1.5339005864       -1.0042021997       -8.8032950110
 C        -3.1645232536        1.4961047768       -5.4436327973
 C        -2.9562859888        1.2612621185       -3.9137726507
 C        -3.3762882077        2.2095409440       -2.7582772433
 C        -1.8876659021        2.6961331976       -2.1058884635
 C        -1.4693020064        1.9007259062       -0.8798477227
 C        -4.1199272528        3.4582090698       -3.2496416691
 C        -4.3371781104        1.3812617330       -1.9397561946
 O        -2.5558681753        0.1389006579       -3.5172705582
 O        -1.1370962507        3.3569130231       -2.7514783639
 C        -0.8393348602        0.5699626195       -1.2677905121
 C        -0.6597083000       -0.4140129723       -0.1290591958
 C        -0.2517982971       -2.0119134148       -0.4800659025
 C         1.0808870801       -2.3493625502        0.1918457985
 C         2.4251854453       -2.6356401367       -0.5662309096
 O        -0.7117139926       -0.0389901381        1.0531178027
 O         1.0469325345       -2.6146037188        1.4044865597
 C        -1.3834902191       -2.7974049054        0.1592696893
 C        -0.2012007550       -2.2735193834       -2.0521761469
 C         3.5617615080       -1.8245016773        0.1385184864
 C         3.2177899885       -0.3401997920       -0.1490486344
 C         4.2443329010        0.8353830659        0.0344129556
 C         3.8814270931        1.8537745058        1.2316266123
 C         3.7301900783        1.4031574848        2.7066534702
 C         5.7673779843        0.3003950573        0.2148252984
 C         4.1737254439        1.6924435454       -1.3155218369
 O         2.1443981871       -0.0443902121       -0.6061365614
 O         3.6911846125        3.0077439250        0.9292703149
 C         2.3970178476        1.8537459627        3.2294935973
 C         2.1459974230        1.7218217505        4.6892523922
 C         0.7615442418        2.1489125167        5.3417069496
 C        -0.1224444826        0.8601514640        5.0895423921
 C        -0.6390378777        0.0077854174        6.2473961034
 O         2.9458596613        1.1993420627        5.4683610199
 O        -0.1810638442        0.4548123717        3.9622256360
 C         0.7426823945        2.8223239515        6.6727714339
 C         0.1214402488        3.3133499763        4.4005929018
 C         0.2109678509       -1.2894185314        6.6188265579
 C         0.0441295883       -2.4088065231        5.5314626973
 C        -1.2433058802       -3.4481898915        5.8123900226
 C        -2.5255746911       -3.0430815742        4.9498927134
 C        -3.9206990400       -3.5697131271        5.4074994769
 C        -0.9698632340       -4.8201425730        5.0957011036
 C        -1.5796122202       -3.7128302399        7.3199763031
 O         0.8108314496       -2.6091159514        4.6581373632
 O        -2.4318657103       -2.4383725750        3.8720764563
 C        -5.1210497903       -3.0319865789        4.5759947685
 C        -5.7645536192       -1.8221185853        5.1984083569
 C        -6.9817313534       -1.2846824158        4.3441423354
 C        -6.4472743869       -0.8000345578        2.9869491879
 C        -6.9414037075        0.5318077496        2.5328433743
 O        -5.3294028335       -1.2262979538        6.1871273324
 O        -6.0501207581       -1.6646050448        2.1824799639
 C        -8.0460166609       -2.4092905402        4.0125555010
 C        -7.7005979911       -0.1326498813        5.3031093601
 H         5.9349840258        2.4955597621       -5.6328261793
 H         4.8652142072        3.2962486801       -6.8821311919
 H         4.1960778136        2.4930894838       -5.3654412005
 H         2.8867814005       -1.7387438310       -6.6735317158
 H         1.9504414015       -1.7151601732       -5.1506217006
 H         5.1145850656       -1.1691412569       -7.8129099491
 H         5.0206117893       -2.2698355546       -6.5439681163
 H         6.5477195091       -1.5396242452       -6.6118309781
 H         5.5785164197        0.6153644869       -3.8520517997
 H         6.6614309578       -0.6954704677       -4.3398388414
 H         6.8074097730        0.9051296478       -5.0555470814
 H         0.9736347225        0.4655930885       -5.7330272430
 H         1.9841741761        0.5501588137       -7.1873900810
 H        -3.2810132828        0.3378147179       -7.3415973543
 H        -2.4542767151       -0.4377032075       -5.9870156353
 H        -0.0762266349        1.2370493295      -10.0079927924
 H         1.0562553269       -0.0220301625       -9.5484910371
 H         0.9442068382        1.4612219250       -8.6869473030
 H        -0.9756266310       -1.8116994121       -9.3228932159
 H        -2.0893690534       -1.6423803412       -7.9836488222
 H        -2.1965411190       -0.4447479179       -9.4021603569
 H        -4.2176627832        1.7079828779       -5.5286041330
 H        -2.5936551162        2.3993965734       -5.7530116914
 H        -0.6488100832        2.5200824229       -0.3891956644
 H        -2.1947774303        1.7607924060       -0.0338159904
 H        -4.5227262229        3.9815278787       -2.4237489677
 H        -4.8259340150        3.1086849871       -3.9947682568
 H        -3.6664229123        4.3432260615       -3.6747940818
 H        -4.7041478596        1.7708826205       -1.0009710634
 H        -5.3043272771        1.3371668957       -2.3890270644
 H        -3.8263011871        0.3793449395       -1.7718965930
 H        -1.4117853737        0.0573727392       -2.0232561420
 H         0.1380818362        0.7374787769       -1.8412541711
 H         2.6296110511       -3.7260048961       -0.6030531339
 H         2.3404688543       -2.4324733744       -1.6226617989
 H        -2.3438779219       -2.5946262533       -0.2803588784
 H        -1.3259112172       -2.6053992939        1.2561307437
 H        -1.2081233718       -3.9153472925       -0.0294965375
 H         0.3384742827       -1.4444462888       -2.5486044070
 H         0.3626252841       -3.2112426093       -2.2064025603
 H        -1.1029212131       -2.5197024432       -2.6466556013
 H         4.6418215236       -2.1985954156        0.0141491639
 H         3.3343902865       -1.9540948009        1.1935253706
 H         3.9340040615        0.3290762109        2.8945581927
 H         4.4108073339        1.9608803400        3.3271290249
 H         5.9585022120       -0.3992559339       -0.6290591222
 H         5.8754061089       -0.2415130422        1.1130445446
 H         6.5090877240        1.0918290705        0.0412232609
 H         4.6415358208        2.7248993240       -1.2360761219
 H         4.7051740376        1.1546713964       -2.0787885703
 H         3.1460647998        1.6471614579       -1.6518425515
 H         2.3002740928        2.9168772811        3.0372354814
 H         1.5328403667        1.3401538895        2.8489543005
 H        -0.7130964689        0.5683403382        7.1905635209
 H        -1.6974386879       -0.3569651425        6.0819534853
 H         1.5618806492        3.5780061468        6.8035854450
 H         0.9290308495        2.0792536530        7.4449101525
 H        -0.2201654308        3.3197042002        6.8251530286
 H         0.7731958890        4.1736557634        4.3915884281
 H        -0.0860514616        2.9509599501        3.3948239837
 H        -0.7270918935        3.7002347340        4.8894435566
 H        -0.0391108689       -1.5393753672        7.6371172063
 H         1.3140590777       -0.9984511458        6.6226083386
 H        -3.8718393589       -4.6952417267        5.5042512529
 H        -4.0316270944       -3.1850358908        6.4106308479
 H        -0.4230542741       -4.6327965278        4.1002490084
 H        -1.8745349193       -5.4175697415        5.1536931442
 H        -0.3131695373       -5.3486938442        5.7976083652
 H        -0.7141890068       -4.0989110350        7.8719754771
 H        -1.8048510688       -2.7968706884        7.8964040197
 H        -2.4914588504       -4.3206690386        7.4622158258
 H        -4.8003289470       -3.0488227416        3.5349419792
 H        -5.9152262783       -3.7642040316        4.5567112886
 H        -6.7393190572        0.6979538972        1.5062805451
 H        -8.0222935389        0.6050878886        2.7152017655
 H        -6.4090286758        1.1669841555        3.2575863681
 H        -8.9796731757       -1.9238929808        3.7148634718
 H        -8.4337155350       -2.9615770680        4.8515711923
 H        -7.5500224807       -3.1089637233        3.3382495419
 H        -8.1616693705       -0.7387665591        6.0539446083
 H        -7.1453148206        0.8007110717        5.4243543441
 H        -8.6413097091        0.1433764860        4.7036012735
 Na       -0.4404812048       -1.5411143211        2.7949183312
