155

 C         4.5420086120        2.8818811734       -6.9435383409
 C         4.5739166244        1.4170511591       -6.9850155555
 C         5.3336741509        0.7190531328       -5.7220652476
 C         4.2864219471       -0.2443312062       -4.9945537539
 C         3.1358449805       -0.9831334958       -5.8428943176
 C         6.3533729504       -0.2523521152       -6.2989640699
 C         6.0178272111        1.6721132750       -4.7093092532
 O         4.0855838716        0.7800198269       -7.8727655278
 O         4.3524100551       -0.4532100990       -3.8214407587
 C         1.7401690226       -0.2743943175       -5.5742488754
 C         0.6198930505       -0.9999090742       -6.3563185311
 C        -0.2303688870       -0.1343112171       -7.4267628816
 C        -0.9192175523        1.0803087728       -6.6198738721
 C        -2.4367642409        0.9807437322       -6.6039296222
 O         0.3625831466       -2.1303546689       -6.1735534607
 O        -0.3410321169        1.9635473102       -6.0366588159
 C         0.6698897975        0.5075173033       -8.4555831327
 C        -1.1809763125       -1.2420283104       -8.0901652156
 C        -3.0303424991        1.9506375695       -5.6521723988
 C        -3.1341907468        1.4086648891       -4.1466639116
 C        -3.3715944402        2.3528351741       -2.9194314026
 C        -1.8923413807        2.4910097807       -2.2301326102
 C        -1.4405089701        1.3904673568       -1.1840310442
 C        -3.8799827600        3.7519809688       -3.2709421008
 C        -4.4550650419        1.7068377085       -2.0618310805
 O        -2.8714028548        0.2447055660       -3.8861789319
 O        -1.2092961211        3.4705073349       -2.4537620577
 C        -0.9266688741        0.0795364903       -1.6310665955
 C        -0.8404836579       -1.0553408803       -0.5200935327
 C        -0.1339426101       -2.4647030017       -0.9086932985
 C         1.2714333641       -2.4072564907       -0.0659223663
 C         2.6569282213       -2.3581151776       -0.7556550456
 O        -1.4232695405       -0.9998658285        0.5107785285
 O         1.3496657986       -2.2455992011        1.1296413965
 C        -1.1248019883       -3.6034005365       -0.4716871769
 C        -0.0146435445       -2.5337844418       -2.4007835435
 C         3.5745349952       -1.4619435524        0.0854267734
 C         3.0776789037        0.0455816344        0.0333291140
 C         4.0269227505        1.3381224245        0.1606748442
 C         3.1888793372        2.3668779886        1.0929584939
 C         2.9838419046        1.8291812263        2.5434477018
 C         5.4560705210        1.1759985753        0.7638142887
 C         4.1183677690        1.9478476183       -1.2940200062
 O         1.9605935200        0.2865713914       -0.3797581940
 O         3.0255162642        3.4921440893        0.7191183231
 C         1.6595316375        2.2754988078        3.0874038606
 C         1.6802328438        2.1630341029        4.6990491894
 C         0.3279523311        2.0156451162        5.6039970781
 C        -0.2926069374        0.6058711388        5.2316715741
 C        -1.0323160560       -0.3861948176        6.2019900115
 O         2.7146738816        2.0683693949        5.2585564292
 O        -0.2468213001        0.1916170804        4.0780676163
 C         0.6474798550        2.0873133804        7.0163066802
 C        -0.6975060485        3.1694770841        5.2134094905
 C        -0.2057504008       -1.6566420944        6.6496474382
 C        -0.0947573933       -2.7954723449        5.6053149635
 C        -1.2178707619       -4.0296885566        5.4933802029
 C        -2.4853093566       -3.4882754977        4.7858991557
 C        -3.8680644106       -3.8026772988        5.4515974978
 C        -0.6505430358       -5.1621732135        4.5361149146
 C        -1.4070595588       -4.5160688147        6.9183288756
 O         0.7359537634       -2.6539367939        4.6974621499
 O        -2.4457403451       -2.6370504527        3.8427389891
 C        -5.0260034348       -3.3637504068        4.5288223629
 C        -5.6729663862       -2.1399625927        5.0581139851
 C        -6.9455165461       -1.5672372648        4.2018927368
 C        -6.3985110477       -0.9331347443        2.8867572399
 C        -7.1813737845        0.3505181797        2.3648581303
 O        -5.2588626844       -1.5304552834        6.0397462538
 O        -5.4857525096       -1.3274701220        2.2774753401
 C        -7.9277905723       -2.6623225105        3.9853527111
 C        -7.7033134349       -0.4828724814        5.1951455180
 H         5.5502646955        3.2407135813       -7.3591022555
 H         3.9718187931        3.2471895857       -7.7568721165
 H         4.3091396690        3.3236720761       -5.9339457866
 H         3.3703971868       -1.0534362443       -6.8760159303
 H         3.1534188953       -1.9900746851       -5.4351757542
 H         6.1640840255       -0.5251901672       -7.2766900648
 H         6.3758994798       -1.1101413056       -5.6214790027
 H         7.3505343727        0.2024071952       -6.5034737747
 H         5.2539931977        1.9633046551       -3.9551695801
 H         6.8714172607        1.2163612310       -4.1998975984
 H         6.3484079455        2.5501840570       -5.2222254106
 H         1.4263303170       -0.2869924359       -4.5572403614
 H         1.9107731476        0.8046316902       -5.8647917147
 H        -2.8826388152        1.0611278120       -7.6182068885
 H        -2.6829911469       -0.0041467807       -6.1972636823
 H         1.3874502640        1.1969675708       -7.9824622187
 H         0.1165249792        1.1057164716       -9.0689704593
 H         1.3111757009       -0.1249318397       -9.1600380971
 H        -0.5197305695       -1.8495988061       -8.6192576882
 H        -1.7571175888       -1.7376738268       -7.3735506468
 H        -1.9440551250       -0.8867425527       -8.9110900445
 H        -4.0271775725        2.3364042919       -5.8266585731
 H        -2.3082042679        2.8190135098       -5.6183094266
 H        -0.6150036968        1.8968772393       -0.6266681987
 H        -2.2241681198        1.1557396339       -0.4533097715
 H        -3.9233128448        4.3695516256       -2.3950407531
 H        -4.9904049292        3.7535654727       -3.4423340916
 H        -3.4226013934        4.2500490298       -4.1103052177
 H        -4.5015261094        2.2858627804       -1.1206000337
 H        -5.2953203227        1.5424150349       -2.7937682891
 H        -4.1569007029        0.7431700208       -1.7611984156
 H        -1.5567044836       -0.3208744653       -2.3589225654
 H         0.0388519429        0.0376069208       -2.1572711401
 H         2.9828683403       -3.4444185020       -0.7862789592
 H         2.5190086996       -1.9273225824       -1.7489688190
 H        -2.1920279222       -3.3390955726       -0.3655882431
 H        -0.8051167133       -3.8361194668        0.4534388436
 H        -0.9393212366       -4.4243679430       -1.0767227542
 H         0.7390109025       -1.8705125359       -2.7576968043
 H         0.4754786887       -3.4917298592       -2.6060154286
 H        -0.9426677829       -2.4631429455       -2.8540644065
 H         4.5996513793       -1.6298405595       -0.2863632605
 H         3.6017909804       -1.6931710323        1.1124820175
 H         2.9574554804        0.7441921457        2.5278791590
 H         3.7940401412        2.2060310916        3.0726782520
 H         6.2261731645        0.7270782107        0.1276934874
 H         5.4662058117        0.6146312558        1.7195445243
 H         5.7971624441        2.1504246016        1.0036891564
 H         4.4853780385        2.9786387456       -1.3682768614
 H         4.7881250996        1.2903045086       -1.7906678445
 H         3.1603610578        1.9015381698       -1.8457945001
 H         1.5284512445        3.4088870862        2.9121766170
 H         0.8465216473        1.7657602365        2.5855213351
 H        -1.2794756605        0.0940983788        7.1927956240
 H        -1.9231138305       -0.8126953499        5.7383552507
 H         1.1835143336        2.9720078435        7.1760223450
 H         1.3149715139        1.2339768864        7.2564621232
 H        -0.2680307205        1.9752794820        7.6559006165
 H        -0.2560767752        4.2022265905        5.4191987396
 H        -0.9724128148        3.1305822365        4.1367075897
 H        -1.5900548610        2.9251114353        5.6920408291
 H        -0.6502797617       -1.8733862824        7.5872349609
 H         0.8083755013       -1.3021852147        6.8699762343
 H        -3.9233831277       -4.8757851831        5.7875685753
 H        -3.7974360821       -3.2769400614        6.3890998996
 H        -0.4713767160       -4.6542257892        3.5998213845
 H        -1.4141316543       -5.8483910967        4.3426075367
 H         0.2395623375       -5.4527205668        5.0159910440
 H        -0.3600319836       -4.6540373255        7.2782123307
 H        -1.9162261975       -3.8275307411        7.4546037517
 H        -1.8403873938       -5.5192847272        6.9943414257
 H        -4.4684819108       -2.9828947500        3.6071334624
 H        -5.7266621307       -4.1458765488        4.0952396277
 H        -6.8227167275        0.5784891675        1.3668613492
 H        -8.2229825927        0.1759747506        2.5466305818
 H        -6.8648781869        1.1987941748        3.0397460528
 H        -8.7641566010       -2.2875417699        3.4986740549
 H        -8.1027468671       -3.1327122174        5.0016601048
 H        -7.7291870049       -3.4043544265        3.2749056743
 H        -8.3098156156       -0.9201083163        5.9489331239
 H        -7.0359326460        0.1102492041        5.8139389564
 H        -8.2640981840        0.0542698809        4.4894827161
 Na       -0.4826109102       -1.8210633628        2.6198320742
