155

 C         4.2582608099        3.7835428526       -6.0090183406
 C         4.7409549804        2.5033266108       -6.5553421814
 C         5.9162830197        1.7968656992       -5.7049678196
 C         5.0892458625        1.1187887505       -4.4867567775
 C         4.1962203386       -0.0898844125       -4.7646306486
 C         6.6467006149        0.7730299286       -6.6556669082
 C         6.8860816738        2.8141495544       -5.2482440211
 O         4.3086493779        1.8088472499       -7.4876247081
 O         5.1245355851        1.6234045626       -3.3517366999
 C         2.7702609790        0.3378335344       -5.0509855708
 C         1.8826957669       -0.8097262525       -5.3818137394
 C         0.8387172648       -0.6591005088       -6.5593973939
 C        -0.0352448139        0.4997493732       -6.1186720087
 C        -1.5264631911        0.3753462755       -5.9057649135
 O         1.7404099436       -1.7669811537       -4.6161644248
 O         0.4356345397        1.6273595653       -6.0473242746
 C         1.5776924306       -0.1327173457       -7.8445788060
 C         0.0789708700       -1.8946014987       -6.8989922641
 C        -2.2011004458        1.6712534272       -5.4051773818
 C        -3.2482236568        1.4523687765       -4.1870900533
 C        -3.5041945855        2.4719661692       -3.0286840117
 C        -2.1121840958        2.1652612696       -2.1929061470
 C        -1.8906238895        1.0336525859       -1.0014888458
 C        -3.5888093729        3.9637042271       -3.4898300727
 C        -4.7294153893        1.9535631517       -2.2481484633
 O        -3.8658036649        0.4238765318       -4.2126439996
 O        -1.1845100417        2.8604087741       -2.5612585306
 C        -1.3940047841       -0.2353639851       -1.4418957168
 C        -0.8902181914       -1.1863854869       -0.3967890666
 C         0.1189012907       -2.4168593596       -0.8701644280
 C         1.5005342058       -1.9885948824       -0.1973141993
 C         2.7212479279       -1.4551431046       -1.0754616727
 O        -1.2704169207       -1.1263476766        0.7743330622
 O         1.6512504606       -2.1691105582        0.9874213411
 C        -0.4238266106       -3.7213162188       -0.3051822221
 C         0.1388097406       -2.6126691985       -2.3533391213
 C         3.3764711873       -0.3112148296       -0.3191353065
 C         2.3623443217        0.8363720648       -0.2392079767
 C         2.6571661349        2.3546205813       -0.0384293306
 C         1.6292947222        2.7704524002        1.1328386560
 C         1.8157078126        2.1473822359        2.5066276316
 C         4.1090614750        2.5168193510        0.4321756548
 C         2.3551605417        2.9948931954       -1.3842782027
 O         1.2221368898        0.4523028626       -0.4013127760
 O         0.8441636278        3.6714075890        0.9205112362
 C         0.5857962026        2.3843456976        3.4251138484
 C         0.7531209851        1.8720953329        4.8841363725
 C        -0.5953746164        1.5081713844        5.6510978692
 C        -0.8921532615        0.1129908602        5.0808672085
 C        -1.9271498306       -0.8009138522        5.7615586681
 O         1.7929296550        1.7175846327        5.4539897672
 O        -0.5400453221       -0.2181140343        3.9353785678
 C        -0.3900097452        1.4824925198        7.1987279610
 C        -1.7402021706        2.4363421404        5.1305448466
 C        -1.4750344198       -2.2410689243        6.2660139985
 C        -0.6070692102       -3.0060662785        5.2014671228
 C        -1.1802788804       -4.4449302248        4.7007981236
 C        -2.2290484508       -4.1321968821        3.5751795046
 C        -3.4846911000       -4.9247602007        3.5976969717
 C        -0.0171257415       -5.2573696466        4.0504173024
 C        -1.6677438013       -5.2369094041        5.8502419421
 O         0.5189633123       -2.6203470925        4.9410786819
 O        -2.0743092667       -3.2142305633        2.7446514842
 C        -4.8424502842       -4.2480542343        3.3163618009
 C        -5.1542652156       -3.2070356120        4.4111991090
 C        -6.3079785289       -2.2514786107        4.1541471732
 C        -6.1773064660       -1.2904623108        2.9337045355
 C        -7.2364192384       -0.2827172271        2.5616501617
 O        -4.4927679286       -3.1924919676        5.4510390510
 O        -5.1073217163       -1.2468913134        2.2831191253
 C        -7.6522394684       -3.0510949240        4.2812927522
 C        -6.2318599035       -1.2910600417        5.3763773552
 H         4.6276952507        4.7249868199       -6.3442546129
 H         3.1781770997        3.9900138235       -6.3208831568
 H         4.2843337145        3.7909803159       -4.9653182572
 H         4.7177050676       -0.6084520872       -5.5892002463
 H         4.1806543142       -0.8071756317       -3.9262175951
 H         6.0912184620       -0.0833836683       -6.9031310530
 H         7.4884116951        0.3256719749       -6.0516362379
 H         6.8997434811        1.1743413763       -7.6478258025
 H         6.3342512830        3.5287530282       -4.6396094998
 H         7.6540988289        2.3049021920       -4.6976104502
 H         7.3523962870        3.2015314056       -6.1113987525
 H         2.2989356375        0.8955263676       -4.2002813093
 H         2.7373505350        1.0027524521       -5.9282343151
 H        -1.9318548534        0.0120880830       -6.8067355349
 H        -1.5740799596       -0.4473182932       -5.2370435563
 H         2.3515923726        0.5764480003       -7.5943441616
 H         0.8597710365        0.2542816847       -8.5558068199
 H         2.0685587096       -1.0376526248       -8.3393998404
 H         0.7799752452       -2.7224335205       -7.0806288871
 H        -0.4383192880       -2.1767085877       -6.0238271395
 H        -0.6967061274       -1.8861450630       -7.6508592017
 H        -2.6821613509        2.2090345124       -6.2463891614
 H        -1.3658249155        2.2921679923       -5.0822371131
 H        -1.1629268122        1.4916893473       -0.3560990487
 H        -2.8462124388        0.9135221955       -0.5136667215
 H        -4.2638746486        3.9457127315       -4.3468655733
 H        -2.5944396534        4.3864108909       -3.7365738180
 H        -3.9344547456        4.5396874644       -2.6579165100
 H        -4.6427765250        2.3254802215       -1.2326034101
 H        -5.5354739609        2.2816330925       -2.8679869065
 H        -4.7063588620        0.9214638494       -2.0722104969
 H        -2.1064174170       -0.8035853889       -1.9089406557
 H        -0.4962127429       -0.1121406170       -2.0969351243
 H         3.4832834879       -2.2528485704       -1.2469210098
 H         2.3112114870       -1.2118523599       -2.0342743600
 H        -0.8837365282       -3.4434713015        0.6326816284
 H         0.3201985917       -4.6064093352       -0.0290279645
 H        -1.2589998431       -4.0383856464       -0.9226115004
 H        -0.0574983090       -1.6594720375       -2.9112519806
 H         1.2122134839       -2.8181407987       -2.6969888051
 H        -0.5718038160       -3.3899743980       -2.7222768295
 H         4.3582778268       -0.0165459183       -0.7455163139
 H         3.5600864217       -0.7116420319        0.6580184338
 H         2.0699815616        1.0936427175        2.4081890603
 H         2.5914154427        2.7207564752        3.1295710338
 H         4.8996051784        2.2571010442       -0.3385988629
 H         4.1821262626        1.8096870591        1.3269625778
 H         4.2861128085        3.5024355155        0.8448985319
 H         1.8716554773        3.9814236416       -1.2394444604
 H         3.2533501355        3.0677974984       -2.0016459982
 H         1.6706500635        2.3331755628       -1.9888546555
 H         0.4688921311        3.5482613686        3.4453619709
 H        -0.3618591363        1.9369994003        3.0129950580
 H        -2.1664646322       -0.1902618013        6.6320751881
 H        -2.7996539821       -1.0671799471        5.1808678421
 H        -0.0139016703        2.3803397666        7.5312417387
 H         0.3804029536        0.7570750335        7.4463280702
 H        -1.3488627898        1.2766734710        7.6851260301
 H        -1.6465626215        3.5233780026        5.3162996722
 H        -1.9148390137        2.3364814395        4.0673247773
 H        -2.6219460078        2.1392670487        5.5797025094
 H        -2.3797905918       -2.6838197369        6.5496621270
 H        -0.8690035198       -1.9838721010        7.2050948125
 H        -3.3645802425       -5.6186821394        2.7727923366
 H        -3.5245832705       -5.5352313500        4.5135763090
 H         0.8586936346       -5.1319073118        4.7023048222
 H         0.2263167165       -4.7626590585        3.0665330535
 H        -0.3078545336       -6.3383254490        4.0427983511
 H        -0.9324244434       -5.4351514303        6.6720519463
 H        -2.5379484371       -4.8246034086        6.3803047582
 H        -2.0398388087       -6.2326178102        5.4681585664
 H        -4.7280658618       -3.7054305244        2.3520039771
 H        -5.6956450587       -4.8801250279        3.3102420126
 H        -7.3093543974       -0.2547612290        1.4689000494
 H        -8.1731628580       -0.2191937392        3.1036588592
 H        -6.7117934084        0.6577734795        2.9078437752
 H        -8.4374180006       -2.3977064770        3.9925246623
 H        -7.7373640778       -3.4662399028        5.3138446849
 H        -7.8041431264       -3.9621950711        3.6940472508
 H        -6.3830250945       -1.8459735580        6.3678271264
 H        -5.2413497809       -0.7794110212        5.5848831502
 H        -7.0253490232       -0.5931022282        5.1674537261
 Na       -0.0228078061       -1.9594295326        2.6518267078
