155

 C         5.7625812882        5.7715776127       -5.2834046455
 C         5.5949321365        4.2364515312       -5.5791067088
 C         6.3054250128        3.2485336635       -4.5619958542
 C         5.0510269630        2.4194340492       -3.9632699768
 C         4.8211016650        0.8909711675       -4.3204095861
 C         7.1210877409        2.2350685038       -5.3603762612
 C         7.1744030869        3.8778720217       -3.4311272640
 O         4.9762093969        3.7873269560       -6.5396145762
 O         4.2985294199        2.8698130516       -3.1208685394
 C         4.0778275792        0.7024516605       -5.6888006037
 C         2.6726366292        0.0545332925       -5.4425701820
 C         1.8931369388       -0.1343497636       -6.7455219150
 C         0.6038472090        0.7442236117       -6.6080588117
 C        -0.3867934645        0.4563881785       -5.3812159567
 O         2.3249967930       -0.2225022852       -4.3090857866
 O         0.3491697771        1.6645637579       -7.3728967686
 C         2.5004524749        0.0503841832       -8.1175846697
 C         1.5434122514       -1.7328579258       -6.6165971087
 C        -1.5483354747        1.4011405798       -5.2797516046
 C        -2.8068568482        0.7105031678       -4.8050278319
 C        -3.7828505755        1.4337069901       -3.8351683427
 C        -3.0233392157        1.5192826856       -2.3600219647
 C        -2.9081010161        0.1565276849       -1.4132657285
 C        -4.0505876234        2.9417061698       -4.2853555119
 C        -5.0278931623        0.6165243584       -3.7859261365
 O        -3.1350706991       -0.3971724211       -5.2303051691
 O        -2.6435786970        2.5793326113       -1.9212048459
 C        -1.5900236208       -0.5746817442       -1.8072848868
 C        -0.9395873666       -1.3339007641       -0.5773071801
 C         0.2039610391       -2.3101356783       -0.8558741583
 C         1.5710848393       -1.6581715371       -0.2460865453
 C         2.6543343515       -0.9011190699       -0.9619738391
 O        -1.3743798610       -1.0996621549        0.5564508946
 O         1.5848827516       -1.5434512578        0.9507920332
 C        -0.2143613662       -3.7316096790       -0.1350708179
 C         0.2407063377       -2.6323217109       -2.4337246306
 C         3.1632357872        0.4442731335       -0.3866285426
 C         1.9333614128        1.3521939467       -0.2446437690
 C         2.0029738029        2.8275036222       -0.1203931368
 C         0.9956450899        3.2454453214        1.1595149175
 C         1.3013256954        2.4211621477        2.4653504020
 C         3.4499530322        3.3955015585        0.1620356736
 C         1.3966643842        3.5330095005       -1.3803241759
 O         0.8075366204        0.7949959708       -0.2082853016
 O         0.0918910751        4.0451190739        1.1056175769
 C         0.1896117955        2.4835738072        3.5449640591
 C         0.4830833275        2.0154410441        4.9305661563
 C        -0.5502201239        1.0538270460        5.7180027187
 C        -0.6851380990       -0.2921401131        5.0903502289
 C        -1.4274441493       -1.4140579132        5.8902658734
 O         1.4545802617        2.4051350088        5.5217619045
 O        -0.2253980003       -0.4093631630        3.9419062861
 C        -0.2753098812        0.8943204545        7.2281721466
 C        -1.8394333764        1.9792739411        5.6411217803
 C        -0.5342929792       -2.5790833549        6.2563448652
 C        -0.3029596410       -3.4742109257        4.9289087865
 C        -1.2682722504       -4.7699348524        4.7069825842
 C        -2.3987873371       -4.4225817127        3.5896399134
 C        -3.3727750689       -5.5310155048        3.3259753120
 C        -0.3787486408       -5.8906612372        4.0397677818
 C        -1.8751748998       -5.1243537050        6.0225172979
 O         0.5812980032       -3.1884457363        4.1631596336
 O        -2.2167832368       -3.5140914345        2.7637826129
 C        -4.7870948218       -4.9719572434        3.1545295282
 C        -5.4056906102       -4.2736069909        4.3310278700
 C        -6.7488019758       -3.5069793065        4.1727712818
 C        -6.6971429572       -2.4131797226        3.0436929295
 C        -7.4688614517       -1.1621667734        3.0315301853
 O        -4.8133929606       -4.2216370102        5.3599095345
 O        -6.0620572236       -2.7877130928        1.9997917731
 C        -8.0285603296       -4.4948391658        3.6601368061
 C        -7.0894563657       -2.9718767755        5.5997775459
 H         6.3566732008        6.4391231548       -5.9188662020
 H         4.8201175554        6.3312096891       -5.5928115685
 H         5.9390060136        5.9683944148       -4.2709251215
 H         5.7494301546        0.3357835686       -4.4100496525
 H         4.2457954762        0.4504394732       -3.5042453539
 H         6.4322177970        1.6640805491       -5.9973137050
 H         7.6132306328        1.5485899418       -4.7147225040
 H         7.9339724260        2.8065660458       -5.8111383515
 H         6.6316949547        4.4895346223       -2.7327499306
 H         7.6172951665        3.1179252237       -2.7940602222
 H         8.0214737138        4.4369120830       -3.8824723219
 H         4.0132334716        1.6563657398       -6.2029590310
 H         4.7613624127        0.0023017473       -6.2923987219
 H        -0.8079022105       -0.5034328877       -5.4849434376
 H         0.2996907345        0.3633424117       -4.5510765263
 H         2.9210332283        1.0996397165       -8.0794924355
 H         1.7730443826        0.0068219624       -8.8567033181
 H         3.2440472898       -0.7183550985       -8.3699684902
 H         2.3665362367       -2.2454626977       -7.0808143442
 H         1.3670307195       -2.0951558698       -5.6138744714
 H         0.6182464319       -1.9074401267       -7.2176248654
 H        -1.7744776057        1.6794302416       -6.3213069859
 H        -1.3142909352        2.3751906661       -4.8265086831
 H        -2.8604307977        0.3685322209       -0.3439018269
 H        -3.7843141790       -0.4081076437       -1.6797802065
 H        -5.1021570189        3.1826230642       -4.2935810288
 H        -3.5394544009        3.2076875940       -5.2313560139
 H        -3.5706179953        3.6229246836       -3.5322061498
 H        -5.6665649882        0.8058313529       -2.8780272323
 H        -5.6173346726        0.7182060131       -4.6611202502
 H        -4.7848670894       -0.3761023423       -3.5936799627
 H        -1.6728054724       -1.3007880350       -2.6127068496
 H        -0.9148753120        0.1779344655       -2.1195496148
 H         3.5000430883       -1.6088662307       -1.0717593614
 H         2.4503581448       -0.6104267578       -2.0214252670
 H        -0.0900568539       -3.7773509869        0.9565920298
 H         0.4161689363       -4.5182813295       -0.6587353133
 H        -1.2046723422       -3.9377282338       -0.2976240668
 H        -0.0477274234       -1.8217149729       -3.1137070454
 H         1.1510403214       -3.2614891549       -2.6927799149
 H        -0.5843347909       -3.3401986707       -2.6624021343
 H         3.9590263523        0.9561690460       -0.9827772293
 H         3.6030081739        0.3405588808        0.5663765861
 H         1.5568351566        1.3646109713        2.0243416817
 H         2.2826715564        2.6910893876        2.9332639211
 H         4.1934766858        3.0765363270       -0.5747289287
 H         3.8816511857        3.1322128752        1.0937990803
 H         3.3354172125        4.4817626987        0.1359712948
 H         1.2667454149        4.6074884532       -1.2787484858
 H         1.8465728684        3.1512148249       -2.2908097789
 H         0.4192522543        3.0921654822       -1.3980173232
 H         0.1255093964        3.5907133560        3.6161061415
 H        -0.7924405137        2.0978227755        3.1005030402
 H        -1.7077048256       -0.9622610897        6.8572950468
 H        -2.2976827992       -1.7042427877        5.3042344882
 H         0.4475785738        1.6779800503        7.6012416690
 H         0.1585984892       -0.0758883696        7.4497451152
 H        -1.1964151608        1.0496411273        7.7713321604
 H        -1.4600236056        2.9487017159        5.8583903004
 H        -2.3531040363        1.9275464051        4.6860455042
 H        -2.5479676251        1.7610990168        6.5140946545
 H        -0.9772820553       -3.0271013557        7.1700072450
 H         0.3915116145       -2.1987884855        6.5669040360
 H        -3.1391958848       -5.9823909155        2.3701834981
 H        -3.3398208741       -6.3158655227        4.0418323399
 H         0.6942377411       -5.6095210968        4.0826838714
 H        -0.6487127673       -6.2630199620        3.0800419710
 H        -0.3636502763       -6.7233529289        4.6524879575
 H        -1.1116715753       -5.0812332382        6.8705587232
 H        -2.5937154822       -4.4225135665        6.4147750266
 H        -2.3845861290       -6.1089450264        6.2699461035
 H        -4.7134504125       -4.4243002259        2.1865383958
 H        -5.4234702374       -5.8209606089        2.8938532581
 H        -8.2365947271       -1.2771134301        3.8291946453
 H        -6.9661588575       -0.1909617213        3.3040500143
 H        -8.0264459578       -0.9701017204        2.1019906462
 H        -9.0100257507       -3.9802588578        3.7994275225
 H        -8.1034787458       -5.1973420826        4.4510488019
 H        -7.9227350247       -4.9759728459        2.6983715905
 H        -6.9959583752       -3.8218493228        6.2680808878
 H        -6.2320791359       -2.2624309416        5.8595688516
 H        -8.1603850730       -2.6599167792        5.7078399532
 Na       -0.2137798470       -2.0031209019        2.3922761652
