155

 C         5.1884081934        5.8895093754       -5.1116462058
 C         5.5672505675        4.4464802344       -5.2582859859
 C         6.3725298340        3.6147045480       -4.1743509422
 C         5.3025122075        2.5390459840       -3.4678218591
 C         4.9213609899        1.1666681246       -4.0360236464
 C         7.3998059370        2.6965739160       -4.9290132042
 C         7.0398358786        4.5497166692       -3.1040622405
 O         5.1778176272        3.7913468271       -6.2696341447
 O         4.7385759242        2.8769318215       -2.4792963819
 C         4.3059784031        1.1011441804       -5.4525910906
 C         3.0491627204        0.3600701963       -5.4533873868
 C         2.1367038545        0.4858515983       -6.7163099549
 C         0.7374599442        1.0676009885       -6.4807541963
 C        -0.1686256785        0.4144050718       -5.4705765325
 O         2.6914329620       -0.4810611518       -4.5778419610
 O         0.2758596227        1.9141631912       -7.2716639002
 C         2.7157502146        1.2557922035       -7.9307260089
 C         1.8001423896       -0.9478479534       -7.3501604158
 C        -1.4931793624        1.1897433350       -5.3762346615
 C        -2.6042455308        0.3175193270       -4.7609738192
 C        -3.8214693168        0.9069917690       -4.0525538010
 C        -3.2703045756        1.0827323385       -2.5199947264
 C        -3.0682039586       -0.1242978806       -1.7287179722
 C        -4.1476315870        2.3357783720       -4.7061857468
 C        -5.0234286571        0.0285902660       -4.0706825346
 O        -2.4843744199       -0.8884500902       -4.9365078944
 O        -2.9775827534        2.1645440384       -2.0813465259
 C        -1.6957219204       -0.7213366819       -2.0793766994
 C        -1.0387767316       -1.4877608788       -0.9886598637
 C         0.2056189424       -2.3952927459       -1.1254191257
 C         1.3805256979       -1.6053854128       -0.3094312896
 C         2.5906252989       -0.9963245557       -0.8771474379
 O        -1.5083658226       -1.3709784072        0.1468562474
 O         1.1497273616       -1.4995518215        0.9118018999
 C         0.1161461662       -3.8317326324       -0.3183030615
 C         0.6957902537       -2.5213356981       -2.5928204781
 C         3.0263300930        0.4171640530       -0.4067327919
 C         1.7704247133        1.3276949750       -0.3064077652
 C         1.8143337159        2.8507700599       -0.0433417832
 C         0.9456327569        3.2764264451        1.3301940773
 C         1.4044779191        2.7108933177        2.6779571533
 C         3.1679004074        3.5625937820        0.2767552704
 C         1.1715381671        3.5253144094       -1.2564396092
 O         0.6471025899        0.8381212334       -0.3951472218
 O         0.0717936381        4.1035959057        1.1650599289
 C         0.2024313817        2.3264037027        3.5319694587
 C         0.5540288640        1.7138478818        4.9364280203
 C        -0.5642595384        1.1212160536        5.8590870843
 C        -0.9514495819       -0.2713430609        5.4348181366
 C        -1.1678585750       -1.4460840347        6.3725893339
 O         1.6818160051        1.8467331983        5.2788911124
 O        -1.0742280104       -0.4386081235        4.1979446239
 C        -0.0611534493        1.2425489826        7.3426128985
 C        -1.8485996703        2.0486022558        5.5742119359
 C        -0.0157068896       -2.5659622302        6.1639746143
 C        -0.1638514928       -3.3587677895        4.8641122667
 C        -1.0885003575       -4.6925658528        4.6708145331
 C        -2.2360117572       -4.2024119393        3.6272820937
 C        -3.2670748911       -5.3207276047        3.2629555353
 C        -0.0786249977       -5.8245259267        4.0792467674
 C        -1.7926055893       -5.2926499600        5.9594516245
 O         0.4726555562       -3.0323098469        3.8559609334
 O        -2.2678423550       -3.1009610611        3.2435209099
 C        -4.5868135731       -4.7143093252        2.8702174873
 C        -5.3249763489       -4.4264221655        4.0823223044
 C        -6.9610700997       -3.9672447135        4.0444490939
 C        -7.0783214381       -2.8674064374        3.0385854631
 C        -7.8126857676       -1.6147399175        3.3307638674
 O        -4.8352315350       -4.3649569481        5.2125728163
 O        -6.6129421716       -2.9757472268        1.9395643341
 C        -7.8636676668       -5.0255530783        3.3503029709
 C        -7.5314215844       -3.6930103392        5.4550770034
 H         5.7693956954        6.4241004271       -4.2787279661
 H         5.2982555108        6.3732107552       -6.0647392395
 H         4.1842009711        6.1015496768       -4.6925829173
 H         5.8204164233        0.5000468756       -4.0795431930
 H         4.2251934802        0.6757408005       -3.3405277074
 H         6.8429726007        2.2625892165       -5.7583875999
 H         7.7939523471        1.9762277545       -4.1528162448
 H         8.1832140655        3.2238033173       -5.3825180580
 H         6.3757313556        5.2324685556       -2.6246012809
 H         7.5024877264        3.9115738786       -2.3589100958
 H         7.7903747184        5.2315911300       -3.4199495522
 H         4.1534031957        2.1452574204       -5.8417215680
 H         4.9991917012        0.6329871136       -6.1224888502
 H        -0.3889010503       -0.6528386222       -5.6663126509
 H         0.3689703696        0.2559128679       -4.5540820179
 H         3.1632997762        2.2209863258       -7.4866166051
 H         1.9339740977        1.6211965074       -8.6145530527
 H         3.5229786133        0.8245146942       -8.4155238678
 H         2.6262029432       -1.2319398175       -7.9085551802
 H         1.4820686158       -1.7019792016       -6.5681745465
 H         0.8942557058       -0.8821981092       -8.0584902146
 H        -1.7726533071        1.4839770216       -6.3715096246
 H        -1.3661763886        2.1004609765       -4.8618862388
 H        -3.3293653776       -0.0209961581       -0.7100492726
 H        -3.7702905255       -0.9321687049       -2.0494138098
 H        -3.9594313991        2.4260611657       -5.8029832316
 H        -3.5945624655        3.0564675386       -4.0937418848
 H        -5.1870222146        2.5729505716       -4.4234855495
 H        -5.6512976308        0.2771537157       -3.2539891770
 H        -5.6536929909        0.1314037874       -4.8936724283
 H        -4.7110795323       -0.9636436317       -4.2117766114
 H        -1.8029542946       -1.5235042245       -2.8367376359
 H        -0.9932727752        0.1582189235       -2.2720741530
 H         3.4831789370       -1.6587146439       -0.7921447898
 H         2.5465315545       -0.9234007014       -1.9543368313
 H         0.4647347848       -3.8303061337        0.6387519997
 H         0.7316390574       -4.5409152998       -0.9020954945
 H        -0.8617795407       -4.2335803485       -0.4109797115
 H         1.2287058192       -1.6302737799       -3.0139532525
 H         1.5054192571       -3.2923988327       -2.7094433330
 H        -0.1637456182       -2.8132385375       -3.3033646586
 H         3.6311752903        0.8712953235       -1.1464994088
 H         3.6302867045        0.3429237741        0.5197582482
 H         2.0201233562        1.8287130654        2.5209219562
 H         1.9637888921        3.4843458713        3.3249479187
 H         4.0154888646        3.3121005689       -0.3247505369
 H         3.5235092410        3.4322579913        1.3449276962
 H         3.1063512822        4.6378860474        0.1080323828
 H         0.7131169177        4.4454303853       -0.9240166870
 H         2.0105985312        3.8069041515       -1.9333348285
 H         0.3160574222        3.0650919426       -1.7302277739
 H        -0.5072834875        3.1663226930        3.5112780644
 H        -0.1868981521        1.4879212148        3.0098962765
 H        -1.2996467038       -1.1494888968        7.3965120595
 H        -2.0254079065       -2.0804380504        6.1433495035
 H         0.0905639587        2.2984282811        7.5908118620
 H         0.8567090261        0.6698739083        7.4727069590
 H        -0.7343193565        0.7225889792        8.0163455779
 H        -1.5199720299        3.0857462317        5.5476296684
 H        -2.3534227412        1.7144623632        4.6469916220
 H        -2.4746904692        1.8485518183        6.4226603648
 H        -0.1203708462       -3.2754229759        6.9714339439
 H         0.9832968060       -2.0964795328        6.2314699283
 H        -2.8276272383       -5.9127745845        2.4581483148
 H        -3.5272338737       -5.9689049315        4.1037777433
 H        -0.3285048676       -6.7757847186        4.5618905708
 H         0.9108821720       -5.5905767816        4.4521786727
 H        -0.0487896488       -5.9844250609        2.9870962576
 H        -1.3754722582       -4.8000171387        6.8551250315
 H        -2.8166375945       -4.9871408011        5.9703718879
 H        -1.7263605363       -6.3705663623        6.2352613472
 H        -4.3339304388       -3.7968363858        2.2990882301
 H        -5.1687938756       -5.4139643586        2.2404085169
 H        -8.8313062892       -1.7180002414        3.7830858737
 H        -7.3612685954       -1.2203655961        4.2833930237
 H        -7.7355086074       -0.7891671355        2.6371407977
 H        -8.8711547168       -4.6956767044        3.1894859039
 H        -7.7790766305       -5.9837765788        3.8882288690
 H        -7.5130721621       -5.1278163878        2.3130313575
 H        -7.5428974036       -4.5358470337        6.1327032048
 H        -6.8355126634       -2.9782765488        5.8601987565
 H        -8.5605950079       -3.3111953396        5.5359216782
 Na       -0.6415824835       -1.6745096024        2.2707218101
