155

 C         4.4101541742        5.2334318287       -4.2165775230
 C         5.7116176460        4.6284485708       -4.8327482864
 C         6.5181762237        3.7585482510       -3.8862969504
 C         5.4541498031        2.7845051355       -3.3016008320
 C         5.0041743971        1.5543611332       -4.1146936008
 C         7.6627574333        2.9945142751       -4.7056311434
 C         7.2260045624        4.6652898066       -2.7547176414
 O         5.9853326941        4.8711809387       -5.9705978173
 O         4.9684210640        3.0704514811       -2.2616765701
 C         4.1296995843        1.9585791654       -5.3810967583
 C         3.1037361501        0.8186999112       -5.6772715671
 C         2.3400930420        0.8590100568       -6.9876870469
 C         0.8653576226        1.4780679731       -6.5098376078
 C        -0.3696405065        0.5624903827       -6.5463573779
 O         2.9065382817       -0.1046554956       -4.9165159132
 O         0.8272441766        2.6022614832       -6.1131775181
 C         2.8249808892        1.9242667755       -8.0045596736
 C         2.3822889454       -0.5650473415       -7.5738463922
 C        -1.4623958688        0.9307524330       -5.5008322034
 C        -2.2930596245       -0.2109778248       -5.1500624832
 C        -3.7078090259        0.1449927199       -4.5206181288
 C        -3.4126608846        0.6672908088       -2.9592175377
 C        -3.1417001978       -0.3849413943       -1.7396372384
 C        -4.4431908041        1.4013798940       -5.2848109079
 C        -4.5409785317       -1.1565173374       -4.5817269371
 O        -1.8643377579       -1.3480994540       -5.2626638118
 O        -3.2502246023        1.8272742063       -2.7661559281
 C        -1.8849912803       -1.0201286668       -2.1998997929
 C        -1.1214077240       -1.5175206264       -0.9339053925
 C         0.3422725987       -1.9294145296       -1.0496110775
 C         1.1680611287       -0.9482739473       -0.0845307362
 C         2.5616599056       -0.5170284800       -0.7105278921
 O        -1.7315133072       -1.7008884157        0.0816941626
 O         0.8049297356       -0.7230272652        1.0377229088
 C         0.3175107968       -3.3742941067       -0.3731230325
 C         0.9559975170       -2.1894337338       -2.4878002866
 C         2.9051333428        0.8655945322       -0.2245662139
 C         1.7147316945        1.7822306694       -0.4746494762
 C         1.7601627625        3.2343671841        0.1949641515
 C         0.6369625701        3.2111141191        1.3281143771
 C         1.0014210206        2.3403416833        2.5692507220
 C         3.0808583984        3.7134804076        0.7712082874
 C         1.2516866111        4.1599774581       -0.8970466783
 O         0.6744453927        1.3906104987       -1.0057897443
 O        -0.3201898725        3.9008019097        1.2778111526
 C         0.0939265879        2.4110568193        3.8383760061
 C         0.4948471389        1.4759730508        5.0340755761
 C        -0.7324631098        1.1043509920        6.1291745522
 C        -1.1520474872       -0.2338866459        5.4503374647
 C        -1.2298472114       -1.5263183954        6.1849668749
 O         1.5507100606        0.8879110058        5.1273996916
 O        -1.4568031219       -0.3118276627        4.2229933221
 C        -0.1243950441        0.8208554865        7.4885619108
 C        -1.8302591190        2.0989183899        6.0923242469
 C         0.0859941441       -2.4132670359        5.9825735672
 C        -0.0949207320       -3.3141184288        4.7286585329
 C        -1.0273646512       -4.6631628905        4.7421701302
 C        -2.1505335328       -4.4464322447        3.6954782407
 C        -3.1933651082       -5.5218093403        3.5287337685
 C        -0.2340005725       -5.9675329087        4.3471324547
 C        -1.7055965818       -4.8966085878        6.2119302404
 O         0.5547023564       -3.0866774070        3.7063714065
 O        -2.1086086409       -3.5437658902        2.8704046974
 C        -4.6016090770       -5.1946961677        2.9087453982
 C        -5.4101303593       -4.5115211895        3.8969334430
 C        -7.0366814124       -4.6166993339        3.8007886187
 C        -7.3778251950       -3.2757770206        3.1570098168
 C        -8.0745211475       -2.2346008689        3.9280689670
 O        -4.8649725270       -3.9869179030        4.8277548045
 O        -6.9734200342       -3.1045000739        1.9734980024
 C        -7.4370378211       -5.9249369070        2.9841451411
 C        -7.6667027275       -4.6895861165        5.2059171296
 H         4.4986260617        6.2992653401       -4.1238410617
 H         3.4817904847        4.9467237647       -4.7822283496
 H         4.0456299979        4.9050035226       -3.3049215584
 H         5.8723019016        1.0110768995       -4.5118496423
 H         4.4706218021        0.9003777264       -3.4986185971
 H         7.1777751735        2.4637351881       -5.5428895631
 H         8.0843773209        2.2259468194       -4.0624003390
 H         8.4310790069        3.6972529177       -4.9115350752
 H         6.6440736321        4.9125080219       -1.8924063247
 H         8.1346565881        4.2687958981       -2.2442985383
 H         7.6402935335        5.5843226790       -3.2043118325
 H         3.6512475172        2.9626859786       -5.2571048592
 H         4.8487061682        2.1522447283       -6.2006394513
 H        -0.8457234889        0.4763854971       -7.5293578227
 H        -0.0769125609       -0.4050708812       -6.2229150609
 H         2.8023598563        2.8209032758       -7.3550657737
 H         2.2414525115        2.0598427744       -8.8682463915
 H         3.8778203123        1.9104452650       -8.3104979735
 H         3.2830740528       -0.7343611950       -8.1784130911
 H         2.3745708113       -1.3427651144       -6.8787823579
 H         1.5758740369       -0.6356304840       -8.3037448925
 H        -1.9639438740        1.8304433199       -5.9546903841
 H        -0.9143093511        1.3668521762       -4.6131437355
 H        -2.9991782979        0.1349786367       -0.8623969730
 H        -4.0427775028       -1.0217015810       -1.7405039924
 H        -3.9606152470        1.6462917444       -6.1978874788
 H        -4.3927026098        2.2473645977       -4.6289678440
 H        -5.4799274950        1.0932039987       -5.4840587040
 H        -5.2601263782       -1.2207372320       -3.6849767776
 H        -5.0703166884       -0.9494373087       -5.5042638162
 H        -4.0409332571       -2.0770203220       -4.4763994889
 H        -2.2452930946       -1.8649048255       -2.7530954396
 H        -1.2050792980       -0.3719966019       -2.8029652317
 H         3.3481479750       -1.2828385855       -0.5908138546
 H         2.3727117184       -0.2791550485       -1.7781737752
 H         0.0194838602       -3.3863878835        0.7420758852
 H         1.3307353680       -3.8323213104       -0.6398960821
 H        -0.5040712392       -3.9215672610       -0.8022739847
 H         1.3101923051       -1.2992804936       -2.9759656677
 H         1.7512107923       -2.8733383285       -2.2518711858
 H         0.3324246846       -2.6171817816       -3.2036519954
 H         3.7753938825        1.2246762552       -0.7848665978
 H         3.0901619951        0.8941551869        0.8641106307
 H         1.1067363021        1.2379499750        2.2167953121
 H         2.0855312618        2.5881023615        2.7700111668
 H         3.9627587977        3.9901893542        0.1779476212
 H         3.4649179243        3.1871935010        1.5997698335
 H         2.7450176211        4.6377520286        1.2372521753
 H         0.8687711988        5.0197689071       -0.3910904737
 H         1.9789649661        4.5994931135       -1.6189290484
 H         0.5792171483        3.6229405930       -1.5133053624
 H        -0.1129963994        3.4703591903        4.1009958476
 H        -0.8942621802        1.9703929100        3.5814584778
 H        -1.4014340257       -1.3111467681        7.2526209775
 H        -2.0714153212       -2.1821963612        5.8690238339
 H         0.7275699308        1.4955681174        7.7548678463
 H         0.3389230611       -0.1328103006        7.3966330919
 H        -0.8201904133        0.8768555337        8.2891384438
 H        -1.4972999000        3.0272111667        6.4656610590
 H        -2.2541046626        2.1174776399        5.0931763577
 H        -2.6036898919        1.6507949980        6.8147650916
 H         0.2449582255       -3.0732624957        6.8418337397
 H         0.9244018002       -1.7755678027        5.8151558979
 H        -2.8029324758       -6.3650813973        2.9429039593
 H        -3.3095577702       -5.8952009416        4.5293196868
 H        -0.6701048197       -6.8450189677        4.9144176034
 H         0.7750536993       -5.7637515407        4.6917858078
 H        -0.1821053355       -6.0942328379        3.3060303438
 H        -1.4145353804       -5.9451810411        6.5807347565
 H        -1.1626559572       -4.1634763191        6.8275125779
 H        -2.7811491417       -4.6598502180        6.0507228997
 H        -4.3074428797       -4.4554002519        2.1449113053
 H        -4.9448193828       -6.0545683432        2.4128336218
 H        -9.1305444379       -2.2302724740        3.9777669405
 H        -7.6980790750       -2.2011774225        4.9158175533
 H        -7.8550449401       -1.2585350141        3.6015161173
 H        -8.5142234250       -6.1015095549        3.1216913022
 H        -7.0919694785       -6.8494898234        3.4138308748
 H        -7.1153682443       -5.9107983336        1.9407898762
 H        -7.3464656554       -5.6193106030        5.7073485155
 H        -7.3817348777       -3.7818265033        5.8714985037
 H        -8.7591488297       -4.4440945027        5.2863359083
 Na       -0.8713937790       -1.5827118714        2.3451642027
