155

 C         5.4156861496        6.1871453841       -0.3274175056
 C         4.9920241088        5.5652691314       -1.6308805012
 C         6.0208947799        4.3576400903       -2.1584616743
 C         5.0025740997        3.2146006899       -2.3087499811
 C         4.9235949992        2.4522742428       -3.6450042329
 C         6.8505658250        4.7916267777       -3.4352111326
 C         7.0683987434        3.9126725396       -1.0250525008
 O         4.1542176689        5.9504161262       -2.3831233779
 O         4.2450082129        2.9899240727       -1.3552309394
 C         3.6325921980        2.8507640244       -4.4065273423
 C         3.4175791859        2.1154188784       -5.7708807710
 C         2.0195174058        2.3611649617       -6.4861923289
 C         0.9917942054        1.3178144597       -5.9339980143
 C         0.6031105554        0.1141600568       -6.8643368623
 O         4.3354045084        1.5516666785       -6.2967392387
 O         0.7578120966        1.3294092570       -4.7361921955
 C         1.4113629933        3.8018963911       -6.2639594907
 C         2.3202875502        2.1564274970       -8.0274590824
 C        -0.8089144608       -0.2946976928       -6.9317003335
 C        -1.1126685161       -1.3430251487       -5.8165554614
 C        -2.6126620496       -1.6408762991       -5.4265151295
 C        -2.8958501132       -0.5129478805       -4.3863240195
 C        -2.7614388873       -0.6847216909       -2.8645780754
 C        -3.5378330820       -1.4918511282       -6.6603527183
 C        -2.7153084555       -3.0172379343       -4.8029087891
 O        -0.1546364688       -1.8871372119       -5.3086278000
 O        -3.1849035972        0.5965441151       -4.8592781771
 C        -1.2970526917       -0.3092822093       -2.5442091445
 C        -0.6992807789       -0.9227523751       -1.2688636718
 C         0.8865333411       -1.0383961780       -1.1947764619
 C         1.4220622382       -0.5858980367        0.0915123455
 C         2.7086784876        0.2535555290        0.1225429595
 O        -1.3427660395       -0.7922570628       -0.2277435631
 O         0.9404978501       -0.8095448767        1.2110945122
 C         1.1038540133       -2.6249213658       -1.3865570034
 C         1.6073162377       -0.4157750424       -2.4104824251
 C         2.5071118526        1.7553674044        0.8142512397
 C         1.2170447657        2.3794790537        0.1781391618
 C         0.9437777576        3.9069366657        0.6492075760
 C        -0.2296409110        3.8526310564        1.7306669061
 C         0.2164697851        3.4673404885        3.1446983697
 C         2.1051207868        4.7374970100        1.2169071346
 C         0.3932457858        4.6566315628       -0.6868780789
 O         0.5309761578        1.7479173054       -0.5510718268
 O        -1.3862375871        4.1154159303        1.5224727682
 C        -0.7457655508        2.3767143995        3.5112814904
 C        -0.6000714852        1.6798809347        4.8493018146
 C        -1.7704909275        0.6348890016        5.4430603063
 C        -1.9832601844       -0.5725326977        4.4786961742
 C        -2.4582618667       -1.9678087361        4.8350809250
 O         0.2074830270        2.0854387517        5.6038677625
 O        -1.7887712238       -0.3634816836        3.3016559276
 C        -1.3281160642        0.1693109620        6.8672019134
 C        -3.1767742368        1.2732505385        5.6822685565
 C        -1.3624591252       -3.0264084817        5.3196487690
 C        -0.2471387422       -3.3345940092        4.2866483858
 C        -0.1555258637       -4.8100181584        3.4340809067
 C        -1.5883911802       -4.9362102925        2.8021832990
 C        -2.5518187573       -6.0110539902        3.4133126726
 C         0.9263747444       -4.4757487904        2.4104338192
 C         0.1658893568       -5.9404042864        4.3610490834
 O         0.5607849108       -2.4425660555        4.1735043545
 O        -1.9979889450       -4.0906549487        2.0819639632
 C        -3.9785796485       -6.0666113085        2.8828205817
 C        -5.1012119639       -5.8556224741        3.9391384011
 C        -6.5876575426       -5.9590850296        3.4690152631
 C        -6.8309146871       -4.4395000289        3.0716531641
 C        -7.9768498549       -3.7007159745        3.7047847828
 O        -4.7630040058       -5.6786852763        5.0768500229
 O        -6.2439466935       -4.0051585345        2.0766898062
 C        -6.6923047564       -6.8028414806        2.0531727962
 C        -7.4616845207       -6.5074292558        4.6250026952
 H         6.1855036304        6.9039253793       -0.5071123218
 H         4.6809845311        6.9497358171        0.0407651140
 H         5.5390320283        5.3845594637        0.3246200232
 H         5.7503427437        2.8332593957       -4.2940913156
 H         4.9537436231        1.4065932136       -3.4044751437
 H         6.1604187195        5.1488186940       -4.1686440905
 H         7.3987434051        4.0529479254       -3.9407196882
 H         7.6306730797        5.5733253257       -3.1809241590
 H         6.4455199777        3.5337283109       -0.2083348584
 H         7.7378706714        3.1416340022       -1.3974681788
 H         7.5935003373        4.8258890563       -0.7574172660
 H         2.7980046474        2.6900032191       -3.6827996540
 H         3.6634864837        3.9452002467       -4.4653296021
 H         1.0639943387        0.3075825225       -7.8780762277
 H         1.2120646510       -0.6288635450       -6.3520118364
 H         1.2332009880        3.8899060578       -5.1817262363
 H         0.4776490653        3.9065702750       -6.8605277785
 H         2.1154415941        4.4875001213       -6.5106656524
 H         2.8685837449        2.9363332415       -8.3943586136
 H         2.9698711931        1.2726471876       -8.0439816373
 H         1.4168624075        2.2151744510       -8.6503183410
 H        -1.1522117391       -0.7540149770       -7.8482188744
 H        -1.4701359938        0.5197966639       -6.7009436485
 H        -3.4691404422        0.0417540865       -2.3883317928
 H        -3.1328152170       -1.6308235414       -2.4199412370
 H        -4.5492875108       -1.7847822174       -6.4016781648
 H        -3.2179448388       -2.1893295621       -7.4416856649
 H        -3.7311864912       -0.4635925237       -6.9974808060
 H        -3.6163391463       -3.1544112783       -4.1602346119
 H        -2.8032176939       -3.8218276186       -5.5774915617
 H        -1.8669410164       -3.1154859382       -4.0772835796
 H        -0.7707569972       -0.5109593613       -3.3941199154
 H        -1.3158500775        0.7280830055       -2.1249135336
 H         3.4703774487       -0.2433574678        0.7296220725
 H         3.0594716129        0.3678261584       -0.9296549742
 H         1.3368506150       -3.0138773103       -2.3694862293
 H         0.1999729013       -3.1348921977       -1.0092404117
 H         1.9447908391       -2.9384420552       -0.8545789175
 H         1.7038026754        0.6579612610       -2.3877567561
 H         2.6060468363       -0.7733951340       -2.6914212273
 H         0.9932203406       -0.5080049058       -3.3144205425
 H         3.4051392934        2.3466813370        0.6875503692
 H         2.3281397809        1.6210558291        1.9047265035
 H         1.2227981175        3.1197169275        3.0624511273
 H         0.1353936656        4.2076534962        3.8822833082
 H         2.7774333366        4.8639006321        0.3651009595
 H         2.7498475267        4.2159948064        1.9863317459
 H         1.7953910601        5.7041757635        1.6602650173
 H        -0.5241466983        5.0401390405       -0.3836544494
 H         1.1050065455        5.3472908153       -1.0355036036
 H         0.2830481788        4.0723055120       -1.6139321209
 H        -1.8020019711        2.8958267858        3.4951434666
 H        -0.9138663011        1.7174631294        2.6258138412
 H        -3.2249973704       -1.8262791234        5.5982391478
 H        -3.0014076202       -2.3291384301        3.9216857621
 H        -1.2763891016        1.0629305675        7.5047434940
 H        -0.2961681382       -0.2284084107        6.7889975426
 H        -2.0027616968       -0.5483310669        7.3275973757
 H        -3.2550229240        2.2457579078        6.1904606014
 H        -3.4910003815        1.5524154454        4.6929368805
 H        -3.8997768401        0.6303321107        6.2016998255
 H        -1.9018233942       -3.9486342963        5.6045484550
 H        -0.9921342935       -2.7290869589        6.2635966708
 H        -2.1724912969       -6.9916704556        3.1972603980
 H        -2.5449993502       -5.9996921228        4.5250874666
 H         1.4003095613       -5.2801535578        1.8911100172
 H         1.7597774586       -3.8517796834        2.8226801258
 H         0.6052269217       -3.8162967302        1.5534144564
 H         1.1740640227       -6.2979469723        4.2258121992
 H         0.2165781195       -5.8690025504        5.3863900024
 H        -0.3965150510       -6.8009354686        4.1942952766
 H        -4.0762589733       -5.2981996336        2.1230397700
 H        -4.0271787404       -7.0201292990        2.3585636201
 H        -7.5512991888       -2.9325032078        4.3078637342
 H        -8.6665326819       -3.3165301228        2.9700148010
 H        -8.6428498836       -4.3535087776        4.2562569656
 H        -7.7231275471       -6.8360571239        1.6378392243
 H        -6.4267451146       -7.8352998979        2.0625295702
 H        -6.0181398256       -6.2890602620        1.3736066807
 H        -7.3473076076       -7.6281298968        4.6645692726
 H        -7.2925953803       -5.8977439301        5.5361442919
 H        -8.5737062986       -6.2985345466        4.3863844336
 Na       -1.0150166811       -1.9444599213        1.8281566882
