155

 C         5.3180141927        5.8593086458        0.5755465136
 C         4.9104820099        5.5059422516       -0.8705502277
 C         5.8915826225        4.5506553422       -1.7979449488
 C         5.1014070210        3.3170941292       -2.2374263291
 C         4.8911351684        2.9513926518       -3.7029114824
 C         6.3376626170        5.4170954588       -3.0721701505
 C         7.1915362780        4.2494856522       -1.0202960097
 O         3.8488907374        5.8645441081       -1.3194242124
 O         4.5395531553        2.6778637700       -1.3704157710
 C         3.4087196015        3.3946574850       -4.1731929632
 C         2.9745677753        2.5675252916       -5.4687796829
 C         1.7790927763        2.9738980069       -6.3286455251
 C         0.7222645599        1.8469507934       -6.0702323017
 C         0.8892615527        0.3364324294       -6.7063876246
 O         3.4007789173        1.4634481003       -5.7035252786
 O        -0.2202565784        1.9933478293       -5.3109175326
 C         1.0737993248        4.3529455550       -5.9149150742
 C         2.3320579680        3.0569089883       -7.7702533474
 C        -0.3599824515       -0.4794055035       -6.8358270514
 C        -0.5708162802       -1.4399611331       -5.6270121186
 C        -2.0498860377       -1.6892755864       -5.1757843570
 C        -2.4939121760       -0.3433460942       -4.4947210465
 C        -2.0606708526       -0.0500239229       -3.0033449808
 C        -2.8464885473       -1.9923531275       -6.4854106196
 C        -2.0576349904       -2.8834843558       -4.2196602592
 O         0.3640280749       -2.0959798398       -5.2175826213
 O        -3.2610402924        0.4571400226       -5.0377058776
 C        -0.5109915201        0.0189604014       -2.6195034977
 C        -0.1325294804       -1.1100508545       -1.6880762539
 C         1.4389597499       -1.2085212664       -1.1510803059
 C         1.4534649672       -0.2520398524        0.0829215327
 C         2.6522890772        0.7604406431        0.1802450645
 O        -0.9287286815       -1.9183942322       -1.1321631679
 O         0.5521101915       -0.3755933074        0.9269588875
 C         1.8744024647       -2.6184547199       -0.6684050547
 C         2.4619887249       -0.6911126669       -2.2554274443
 C         2.0675114154        1.9468419560        0.8928856251
 C         0.9537213839        2.7523899998        0.1168847613
 C         0.4733527857        4.0132167982        0.7677482427
 C        -0.7344615271        3.5286424319        1.6817431524
 C        -0.4398236904        3.0082720369        3.1246338022
 C         1.5659483055        4.7440514061        1.6637045832
 C        -0.0756932411        4.8888494770       -0.3409061201
 O         0.5253877274        2.2970459022       -0.9562588104
 O        -1.8420364808        3.6472212005        1.3304871991
 C        -1.1435646536        1.6451935827        3.3735170813
 C        -1.4326953399        1.1791400470        4.8584586405
 C        -2.7937811303        0.2563750651        5.1402639013
 C        -2.4836875337       -1.1029646832        4.6614018469
 C        -1.9614358875       -2.2410439551        5.5763778108
 O        -0.6432058647        1.2822233699        5.7499274784
 O        -2.3607605053       -1.2962550751        3.4791431975
 C        -2.9829573091        0.4307147776        6.6521636017
 C        -3.9958810467        0.8811132426        4.3688178474
 C        -0.4129692020       -2.4409079726        5.4370426679
 C         0.1225642230       -3.1014076796        4.0520448384
 C         0.0464092534       -4.6925739150        3.7052953479
 C        -1.2498279930       -4.8516007881        2.8231797238
 C        -2.2188055097       -6.1255097267        3.0607562906
 C         1.2060787448       -4.9639584890        2.6384113054
 C         0.0150284730       -5.6188419814        4.9719526409
 O         0.6099032667       -2.3718636605        3.2571996049
 O        -1.3750296900       -4.2416306991        1.7994436259
 C        -3.5758594546       -6.0785017453        2.3162048104
 C        -4.7223975118       -5.9484152300        3.4270276659
 C        -6.2159481906       -6.0161525055        3.1172189955
 C        -6.6521536119       -4.6067773944        2.6579285215
 C        -8.0918883739       -4.2766087578        2.6050137232
 O        -4.3123056190       -5.8732843859        4.5799133387
 O        -5.7789946409       -3.7315187751        2.6528153402
 C        -6.4882652101       -6.9998638918        1.9358925926
 C        -6.9526492732       -6.5101900295        4.3348284551
 H         6.2273517680        6.4355291423        0.5291582233
 H         4.4642337799        6.2619821414        1.1918617419
 H         5.7264038762        4.9867458804        1.1020774892
 H         5.5587612077        3.4241975244       -4.3914433833
 H         5.0339495339        1.8597331911       -4.0312967622
 H         5.5070648945        5.7620453011       -3.7103552684
 H         7.0748809131        4.9660429771       -3.7363931357
 H         6.7421099539        6.3430046015       -2.6853234852
 H         6.9299035256        3.4646109190       -0.3214394262
 H         7.9410275304        3.8903978812       -1.8039179010
 H         7.4817856480        5.2205579206       -0.5986497075
 H         2.6989339825        3.0317186444       -3.4303061999
 H         3.3202030138        4.4900484824       -4.2231851070
 H         1.4621407149        0.4119788220       -7.6082632470
 H         1.5140515846       -0.3308420141       -6.0334244822
 H         0.7404193635        4.3175325550       -4.8442127627
 H         0.1479754061        4.5918879564       -6.4715996613
 H         1.6703478567        5.1589867557       -6.0984961116
 H         2.8687670929        3.9526659667       -7.8884922098
 H         2.9578896926        2.1648211849       -7.9958325053
 H         1.5499964523        2.8813292363       -8.4520417957
 H        -0.2008458077       -1.1694565488       -7.6471653955
 H        -1.2362934505        0.0902198301       -6.9957831505
 H        -2.5517706977        0.9243747806       -2.8323392286
 H        -2.5734333370       -0.8946692893       -2.4542685610
 H        -3.7991538511       -2.3817256190       -6.1677935332
 H        -2.3011040070       -2.8017434096       -6.9687556250
 H        -2.9397665958       -1.0917953433       -7.1555251899
 H        -2.8124581120       -2.6816207386       -3.4992711345
 H        -2.4617466902       -3.7404796781       -4.7828334244
 H        -0.9861835387       -3.1706362508       -3.8834332578
 H         0.2502081492       -0.2017911031       -3.4178759672
 H        -0.1296736640        0.9850167689       -2.2165245740
 H         3.5974828296        0.3122113203        0.5593388379
 H         2.9579979523        1.0280312946       -0.8249106715
 H         2.0888547935       -3.3769345219       -1.4197113054
 H         1.0829807926       -3.0453830345        0.0122047148
 H         2.6449431598       -2.4386685517        0.0246672888
 H         2.2421614463        0.3254037631       -2.6139684382
 H         3.5790729024       -0.7730935165       -2.0917643728
 H         2.3965328000       -1.4101405853       -3.0616953651
 H         2.9213442920        2.6020792519        1.1253403297
 H         1.6494402629        1.6188330928        1.8670834074
 H         0.5945301845        2.8684029965        3.4226485163
 H        -0.7859157596        3.7771094429        3.7316405615
 H         2.4079474532        5.0988595280        1.0777121731
 H         1.9161376762        4.1834323695        2.4831591793
 H         1.1492835995        5.6044209299        2.1647723291
 H        -0.9578609710        5.4611290939       -0.2253959901
 H         0.5952048702        5.6334907126       -0.6320179178
 H        -0.3244031182        4.1659546157       -1.0890600777
 H        -2.1506668037        1.6673282890        2.9623803036
 H        -0.4530390860        0.8690004077        2.9881320054
 H        -2.1185684753       -1.8961482508        6.5714801724
 H        -2.4672993961       -3.2160360993        5.4577426402
 H        -3.1148486258        1.5180772304        6.8249383212
 H        -2.0853949252        0.1155032803        7.1654429905
 H        -3.8225391973       -0.1668863304        6.9388840278
 H        -3.9568942547        1.9619073873        4.3505665431
 H        -4.0677126198        0.4378131623        3.3958927727
 H        -5.0208798415        0.5458962915        4.7947495801
 H        -0.1787758005       -3.1547521751        6.1986863191
 H         0.1356387062       -1.4911269179        5.4288268959
 H        -1.6657437435       -7.0562637516        2.8009038467
 H        -2.3674573824       -6.4243199447        4.0862913474
 H         1.0771140456       -5.8346699963        2.0474708537
 H         2.2467695255       -5.0594832639        3.0635054404
 H         1.1315189806       -4.1413218682        1.8584080786
 H        -0.7794082187       -5.2659982050        5.6499153897
 H        -0.2200293418       -6.5481747097        4.5713002815
 H         0.9555292305       -5.7317891363        5.4893397955
 H        -3.5167320061       -5.1607490950        1.7489142951
 H        -3.6388147796       -6.8822954726        1.5785648097
 H        -8.2974040329       -3.4674015427        1.9495231899
 H        -8.5481097357       -5.2607918369        2.4906279686
 H        -8.4613861842       -3.8196884595        3.5257839232
 H        -7.5731151759       -7.0324732741        1.7100613947
 H        -6.0622439967       -7.9347901072        2.2035021328
 H        -6.0671723384       -6.7173154624        1.0241417407
 H        -6.3270428837       -7.2619321237        4.8870180433
 H        -7.0941305056       -5.7457012433        5.1500010387
 H        -7.8727221944       -7.0488550599        3.8850841390
 Na       -1.0291454573       -1.9625275022        1.3746570920
