155

 C         5.3957910502        5.7433232871        0.7182300934
 C         4.9237042544        5.5387283357       -0.6423760901
 C         5.8468949467        4.7740328050       -1.7574259579
 C         5.2641504619        3.4313458531       -2.1431825913
 C         4.9284434577        3.1929211903       -3.6129422928
 C         6.0480576342        5.7452141295       -2.9020966506
 C         7.2450170727        4.4662691600       -1.1593927271
 O         3.7723750029        5.7779910080       -0.9324975038
 O         5.0794641534        2.4894030667       -1.3543480795
 C         3.3538823687        3.4163873770       -3.8904659281
 C         2.9264101611        2.5823299734       -5.2770115339
 C         1.7079135685        3.0396232010       -6.1388140967
 C         0.5736425809        1.8588966049       -6.2749698091
 C         0.8013857849        0.4282532287       -6.8983923406
 O         3.5696708238        1.6604834217       -5.6429319571
 O        -0.4715153043        2.0630138773       -5.7111151444
 C         0.9662853559        4.1947257915       -5.5212721139
 C         2.2197166689        3.2971404371       -7.6341441045
 C        -0.4219886267       -0.3712430411       -6.8843979402
 C        -0.4078566039       -1.3850122132       -5.6996886010
 C        -1.6534032087       -1.7439470126       -5.0001373040
 C        -2.3565251120       -0.3027077158       -4.3417816715
 C        -2.0059101257       -0.0889430044       -2.8528860232
 C        -2.7585512488       -2.2792639253       -6.0277398965
 C        -1.3895645153       -3.0185665362       -4.0475659479
 O         0.6763417639       -1.7775296475       -5.2496527064
 O        -2.9031412514        0.4411949306       -5.0694633184
 C        -0.4649389959       -0.1018025784       -2.6739300560
 C        -0.1201695911       -1.0476561745       -1.4956892935
 C         1.3279856616       -1.2528116877       -1.1431289476
 C         1.5657811949       -0.1853690840        0.1401308026
 C         2.6418361799        0.9893207789        0.0362440912
 O        -0.9563065612       -1.6377163836       -0.7810376135
 O         0.9311767331       -0.2999301426        1.1377742050
 C         1.4802697181       -2.7310078673       -0.6556645858
 C         2.2088749356       -0.9568597594       -2.3134400880
 C         2.1458412390        2.1929581817        0.8678825476
 C         1.0676737580        3.0886798668        0.1611602752
 C         0.2380489149        4.1865043677        0.9639478922
 C        -0.8821571308        3.5937327337        1.6635679832
 C        -0.7055211706        2.8890897967        3.0766219562
 C         1.1079809425        4.9461567584        2.0286683028
 C        -0.4285338698        5.0780180170       -0.1424901276
 O         0.7589637243        2.8084640628       -0.9826919668
 O        -2.0260999107        3.5049483419        1.2964118642
 C        -1.7799944756        1.7957905215        3.2005444908
 C        -1.8141426353        1.0916611239        4.5439860441
 C        -3.0084670648        0.0478018819        4.7747693385
 C        -2.3152267005       -1.2129686492        4.3148001262
 C        -1.8012052250       -2.2336793772        5.3796606059
 O        -0.9607900444        1.2185228260        5.4298792438
 O        -2.1486403145       -1.5582429094        3.1636529123
 C        -3.4193083171       -0.0453028573        6.2890955707
 C        -4.2144040639        0.2218588934        3.7890467901
 C        -0.2518102764       -2.4798562394        5.2780545733
 C         0.0468117692       -3.1148796852        3.9359626865
 C        -0.0633833683       -4.6817093440        3.6789444849
 C        -1.2251311291       -5.0493146909        2.7531896146
 C        -2.1088586439       -6.3442362209        2.9885395233
 C         1.1410814734       -5.0539900515        2.8098384429
 C        -0.1189643448       -5.4432948177        5.0111997979
 O         0.5561830370       -2.3275236932        3.1402251329
 O        -1.5467823666       -4.2706654105        1.8809471357
 C        -3.4811221285       -6.2115205743        2.4505614437
 C        -4.5702880048       -6.1129749299        3.5272507284
 C        -6.0526686366       -6.0436775328        3.1068022425
 C        -6.4473178176       -4.6457564563        2.6647621040
 C        -7.7750940801       -4.3427507796        1.9768720891
 O        -4.1885162522       -6.0376295227        4.6749199510
 O        -5.6004466749       -3.7397516164        2.6576285931
 C        -6.3091945303       -7.0800069005        1.7922768062
 C        -7.0219707063       -6.5684208333        4.2904268813
 H         6.4085641967        5.9048857667        0.7556533698
 H         4.6936838232        6.3120356437        1.3320329290
 H         5.2998961878        4.8440179425        1.2358411900
 H         5.4820967924        3.8348344107       -4.2500131544
 H         5.2074148244        2.1443174312       -3.8995039377
 H         5.1164660255        6.1328870537       -3.2831847555
 H         6.5769879337        5.4070698403       -3.7634467158
 H         6.6863189001        6.5396078344       -2.4805745989
 H         7.1699811887        3.7060143690       -0.3962750630
 H         7.8388435154        4.0986096084       -2.0284166506
 H         7.6755686480        5.4187767088       -0.9074787911
 H         2.8320086555        2.8100424465       -3.1271836350
 H         2.9760779944        4.4205674330       -3.6088119416
 H         1.2854741667        0.3897252489       -7.8637663827
 H         1.5976126606        0.0375058985       -6.1958968569
 H         0.6675256344        3.9330480925       -4.4565933381
 H         0.0107088864        4.4761600127       -6.0742475684
 H         1.5218951116        5.0800831655       -5.4285751056
 H         2.8205752199        4.1254346892       -7.6713149534
 H         2.6571538911        2.4144637477       -8.1227607671
 H         1.3151100042        3.5733417126       -8.2193708154
 H        -0.5342163982       -0.8157750587       -7.8768483039
 H        -1.2187547030        0.3721249321       -6.7550430850
 H        -2.5446276835        0.7854975973       -2.4718402866
 H        -2.5061251776       -0.9469603207       -2.3681526633
 H        -3.7156114509       -2.3765274878       -5.6256063738
 H        -2.3354907707       -3.1790180896       -6.3839617880
 H        -2.8761317768       -1.5114767911       -6.7898196692
 H        -2.2904220595       -3.5282800627       -3.8981697618
 H        -0.7607258302       -3.7482195585       -4.5221070545
 H        -0.8926153052       -2.5720212312       -3.1687269378
 H         0.2086722864       -0.1406698340       -3.4968319563
 H        -0.0527181920        0.8490692029       -2.2493822634
 H         3.6543642930        0.5973438172        0.2877290705
 H         2.6658315873        1.2069697442       -1.0381933222
 H         0.8936913938       -3.5821189552       -1.1265142283
 H         1.0809028699       -2.8562670174        0.3706154544
 H         2.6120883472       -2.8913033211       -0.6722518260
 H         2.1376195340        0.1234087879       -2.4657815793
 H         3.3159135194       -1.1431023492       -2.3016731288
 H         1.7197974266       -1.5063088149       -3.1263698288
 H         3.0146996935        2.8202519311        1.0892332809
 H         1.7548310444        1.8413065848        1.8434640442
 H         0.3302770121        2.5380846425        3.2650165626
 H        -0.9129461263        3.5892593372        3.8489350458
 H         1.8486995093        5.5398634216        1.5377286313
 H         1.6350635715        4.4191657247        2.8070552308
 H         0.4602871010        5.6154474935        2.5747640076
 H        -1.2423543219        5.7089968209        0.2162798827
 H         0.2759819461        5.8172889136       -0.5070413757
 H        -0.8505233210        4.4758812652       -0.9962602513
 H        -2.8465406627        2.2628244095        3.0287175926
 H        -1.5842321011        0.9493651846        2.4702889121
 H        -2.0064544978       -1.9443735871        6.3974178699
 H        -2.4000699498       -3.1863788472        5.1722826524
 H        -3.9529898841        0.9100493209        6.3480942832
 H        -2.5181444959        0.0871317566        6.8623731689
 H        -4.0326671897       -0.8654864612        6.5607996448
 H        -4.5872139217        1.2416124584        3.8927635084
 H        -3.8183353102        0.1272677019        2.7949403725
 H        -5.1428688020       -0.4031876212        4.0592950791
 H         0.0780278963       -3.0548325761        6.1569489863
 H         0.2706292144       -1.5342096333        5.3939605443
 H        -1.6032466611       -7.1814354088        2.4182750484
 H        -2.1058306121       -6.8681282068        3.9440810356
 H         1.2071232183       -6.0039764752        2.4088246025
 H         2.0347526376       -4.7389275640        3.3329712927
 H         1.0716233142       -4.4170902284        1.9132978750
 H        -0.9200447993       -5.1253575175        5.6414312725
 H        -0.1140820123       -6.5017989719        4.7464022027
 H         0.8358435260       -5.2855120367        5.4250373308
 H        -3.5206658954       -5.2566161024        1.9264238344
 H        -3.6383401472       -6.9797610036        1.6644875546
 H        -8.3700343082       -3.7287722677        2.6654603617
 H        -7.3924751360       -3.9104384181        1.0217533575
 H        -8.4078323950       -5.2240020838        1.7029013585
 H        -7.4062684190       -7.3672060344        1.6940731881
 H        -5.7545033937       -7.9908997573        1.9644440641
 H        -5.9005474898       -6.7509807786        0.8575887257
 H        -7.0905528459       -7.6124523455        4.1711344209
 H        -6.6948040619       -6.3056879544        5.3338924365
 H        -8.0553447455       -6.1890264997        4.0996081485
 Na       -0.8582017676       -2.0692687166        1.4409829013
