155

 C         5.4172647841        5.5975698094        0.8471666594
 C         4.9939562794        5.3556345669       -0.5864438721
 C         5.8934048550        4.8167985156       -1.7523829478
 C         5.2812811098        3.4328073069       -2.1761415457
 C         4.8033035211        3.1456864428       -3.5927828123
 C         5.8350697447        5.9251878358       -2.8160919608
 C         7.3201550211        4.7372583084       -1.1421609900
 O         3.8327348890        5.5846785276       -0.8138389282
 O         5.0678314705        2.6622403695       -1.2818855300
 C         3.3265268600        3.2192288795       -3.8697218910
 C         2.8770785942        2.4858893314       -5.2038563095
 C         1.6138091995        3.0431826486       -5.9541493488
 C         0.4836411532        1.9204950880       -6.1196467207
 C         0.9080131221        0.7053551809       -6.9501429936
 O         3.5095122845        1.5346907874       -5.7220836204
 O        -0.6041328217        2.1180081789       -5.6191330051
 C         0.9163744516        4.3294693608       -5.4306374527
 C         2.0566818357        3.3343970354       -7.4149976765
 C        -0.2869212264       -0.3214185416       -6.9784963282
 C        -0.2551155026       -1.2012806050       -5.7430720902
 C        -1.5826434605       -1.8245219493       -5.1110546690
 C        -2.2347644380       -0.5619015247       -4.4267986795
 C        -1.9918267348       -0.0915000663       -2.8830490113
 C        -2.5942486353       -2.3744448548       -6.1308143084
 C        -1.2087641772       -2.8795675615       -3.9896436289
 O         0.7447810183       -1.4011926458       -5.1153056101
 O        -2.8572400636        0.1890195893       -5.2171655967
 C        -0.6047394394        0.2426434430       -2.4420548653
 C        -0.1640400649       -0.8354781194       -1.3712309157
 C         1.3221147744       -1.0678270075       -1.0058761175
 C         1.6031137919       -0.1690010230        0.1755020724
 C         2.5144287939        1.1379598178       -0.0641241406
 O        -1.0634910966       -1.2910528838       -0.6750829531
 O         0.9329125689       -0.3547888798        1.2178476676
 C         1.6369106245       -2.5086668059       -0.4625073108
 C         2.3682757100       -0.9279614496       -2.1015737634
 C         2.2167250095        2.3925669435        0.7752798915
 C         1.0217974040        3.1765463913        0.0920656081
 C         0.2017500175        4.2565659892        0.9484000102
 C        -1.0671339312        3.4135502122        1.5364311031
 C        -0.8743400600        2.5709481780        2.7021828078
 C         0.9906846680        4.8905614837        2.0335500539
 C        -0.1838508812        5.3708305053       -0.0297283641
 O         0.6765070771        2.9792784059       -1.0509160294
 O        -2.1422065031        3.5288723889        1.0281587255
 C        -2.1615476653        1.8973625293        3.1814462802
 C        -1.9652137560        0.9843989104        4.4741140472
 C        -3.1322535322       -0.2184741849        4.6071721205
 C        -2.3443990990       -1.5210505357        4.2979642866
 C        -1.8852182380       -2.5252366466        5.3132415140
 O        -1.3430765033        1.2686263171        5.4424569166
 O        -2.0950967285       -1.6422586639        3.0937168482
 C        -3.7089123653       -0.0567530358        6.0618814171
 C        -4.2410549112       -0.0427492947        3.5898717312
 C        -0.3194319184       -2.5522586559        5.2825994892
 C         0.2822931403       -3.2619898660        4.0103366254
 C         0.0184821458       -4.7635397507        3.7474094606
 C        -1.3214248183       -4.9542266316        2.8701206398
 C        -2.0248332857       -6.2631237561        3.0059041758
 C         1.1028120320       -5.2858161191        2.8818520970
 C         0.0536729464       -5.5613634990        5.1214709063
 O         0.9179221123       -2.5740396373        3.2314687986
 O        -1.5130671479       -4.1890637561        1.9572677696
 C        -3.5117776501       -6.2970595622        2.4658290840
 C        -4.5488735212       -6.1439596180        3.4659682006
 C        -6.0305399914       -6.1196751501        2.9530221263
 C        -6.2630483067       -4.6714798459        2.5441117685
 C        -7.5482488551       -4.4136131106        1.8204393667
 O        -4.2720867101       -6.2121883472        4.6473136005
 O        -5.4687332634       -3.7726471188        2.7545900380
 C        -6.2567151112       -7.1730564864        1.7848990052
 C        -6.9230739436       -6.4350139477        4.1894458525
 H         6.2143228687        6.3895891550        0.9567116128
 H         4.5111033557        5.6548076188        1.4040872928
 H         5.8550553391        4.7031349120        1.4048923717
 H         5.4370879341        3.5926698297       -4.4214163133
 H         5.0419558886        2.0795383662       -3.5486198818
 H         4.9002674287        5.7973396907       -3.3768842485
 H         6.6557816261        5.7724620411       -3.5546555676
 H         5.9705739769        6.9142652224       -2.4742073464
 H         7.3631693169        3.9381187316       -0.3728908937
 H         8.0019423837        4.5799122803       -1.9758406706
 H         7.5158969187        5.7879628007       -0.7920763303
 H         2.7614347812        2.9742065018       -2.9755087329
 H         3.0159647153        4.2444988159       -3.9531853122
 H         1.1989975400        1.1149111421       -7.9314431463
 H         1.8310667899        0.3088976752       -6.5687921440
 H         0.5430108393        4.2960239718       -4.4359336060
 H         0.1040850194        4.5280552380       -6.0570998131
 H         1.5776158750        5.2319333883       -5.4059620452
 H         2.1200644171        4.4764749425       -7.6067108901
 H         3.0389908858        2.8874250561       -7.6450979808
 H         1.3327657577        3.1114553661       -8.1488490463
 H        -0.1522062831       -1.0657500300       -7.7547156005
 H        -1.2272795424        0.1885577018       -7.1747978682
 H        -2.7145885550        0.7159644969       -2.6968928913
 H        -2.4808825765       -0.8651117081       -2.2452024751
 H        -3.5771578588       -2.4464538934       -5.6087835370
 H        -2.2672397369       -3.3204695290       -6.5659054011
 H        -2.7929820527       -1.5618351912       -6.7991524463
 H        -2.1182042938       -3.5135622260       -3.8190088942
 H        -0.4955456656       -3.5896086594       -4.4398745927
 H        -0.8368798230       -2.3412834597       -3.1264777441
 H         0.2516813777        0.1789285325       -3.1790659255
 H        -0.4527146112        1.3019866692       -2.1720028274
 H         3.5164274089        0.7630833840        0.0873750374
 H         2.4134791783        1.3618345338       -1.1228564977
 H         1.5046144964       -3.1284371667       -1.2854149511
 H         0.9703821538       -3.0209424790        0.2313872786
 H         2.6160177087       -2.5662882105       -0.2903315044
 H         2.4903639250        0.0262101492       -2.6312852564
 H         3.2302728648       -0.8870201533       -1.4562916040
 H         2.4057680933       -1.7932295484       -2.7634393686
 H         3.1272029012        3.0142700185        0.8590213857
 H         1.8849904115        2.1516678479        1.7842905937
 H        -0.0567849092        1.9172261872        2.4389029084
 H        -0.5193573854        3.2742837124        3.5061574778
 H         1.8018564868        5.6062692786        1.7861460646
 H         1.5017631923        4.0974312162        2.5614630078
 H         0.3839815635        5.4610488078        2.7426871340
 H        -0.0743715984        6.3632045125        0.4361430847
 H         0.4323949774        5.3578243982       -0.9409631472
 H        -1.1604691928        5.2883181177       -0.3632096298
 H        -2.7953871605        2.6184745637        3.5046899468
 H        -2.6810577195        1.4326510628        2.3841249134
 H        -2.2896998574       -2.3821992839        6.3382432157
 H        -2.2760934463       -3.4232699784        4.9412057389
 H        -4.2367513830        0.8730430445        6.0416102052
 H        -2.9107626374       -0.0521597697        6.7900055372
 H        -4.4459240556       -0.8741947447        6.2125118609
 H        -4.6524569830        0.9813201779        3.7464637247
 H        -3.8865641560       -0.1169990673        2.5410204071
 H        -5.0286621684       -0.6651266012        3.8851710879
 H         0.0855529388       -2.8915799593        6.2625111120
 H         0.0877654037       -1.5108499484        5.3977495603
 H        -1.4867001541       -7.0533295651        2.5345363232
 H        -1.9639298134       -6.6112267481        4.0478167117
 H         0.7801711644       -6.3440949150        2.5992645769
 H         2.0897201867       -5.2539147565        3.4058636992
 H         1.2046327198       -4.7922277019        1.9021698931
 H        -0.9425455327       -5.2824065575        5.5257677499
 H         0.2297673618       -6.5916838972        4.9549418860
 H         0.8872729531       -5.0267846539        5.7144969992
 H        -3.6767410511       -5.5714036398        1.6514780896
 H        -3.6793469679       -7.2878029816        2.0785628429
 H        -8.3738476246       -4.7935379901        2.4007606517
 H        -7.5621749925       -3.3845206367        1.4694875549
 H        -7.4564203371       -5.0380138078        0.9640240261
 H        -7.2921899231       -7.3422585467        1.7596696562
 H        -5.8398295599       -8.1803527196        1.9750578963
 H        -5.8710677799       -6.8085899625        0.8283757162
 H        -6.7193637510       -7.4489364459        4.7380756547
 H        -6.7220817360       -5.5234200424        4.7582196309
 H        -8.0225180065       -6.3715780687        3.9658235650
 Na       -0.7538087411       -2.0734762453        1.3051667412
