155

 C         5.7642787156        5.0483561803        1.1464698648
 C         4.8732268762        5.0528731367       -0.0398526916
 C         5.4952912244        4.9763376396       -1.5941091252
 C         5.2238844437        3.4908238143       -1.8540522087
 C         4.7294238896        2.9384290702       -3.2507347401
 C         4.7614822124        5.9945453638       -2.5018869939
 C         6.9956279134        5.0775900372       -1.6829332292
 O         3.6516398789        5.2148960099        0.0406742596
 O         5.5211664306        2.6969748668       -0.9685355809
 C         3.2691799842        3.4281614465       -3.6731023382
 C         2.7523960791        2.7807384824       -5.0591056101
 C         1.3812555026        3.3534099164       -5.7045279276
 C         0.5841055092        2.0107982371       -5.8554724448
 C         0.6461254523        1.1912366599       -7.1891924095
 O         3.4714356813        1.9998173017       -5.6214304400
 O        -0.1377302169        1.7417317118       -4.9276573116
 C         0.7433617729        4.2489827735       -4.6393530633
 C         1.7497296845        4.0291915576       -7.0588064980
 C        -0.1980346266       -0.0855142932       -7.0985870712
 C         0.2385029698       -0.9203040158       -5.8536564632
 C        -0.9532025862       -1.6860121841       -5.0416647840
 C        -2.0849108297       -0.6731913905       -4.4240516240
 C        -2.0490920492       -0.3371727951       -2.9283361118
 C        -1.6937166559       -2.5835486573       -6.0533256565
 C        -0.2206700823       -2.6731524932       -4.0723278636
 O         1.3789529339       -0.8996256249       -5.4826296443
 O        -3.0089206354       -0.2685493579       -5.0422922144
 C        -0.7066002424        0.2880958974       -2.4323660549
 C        -0.0318688060       -0.4714143137       -1.3016786294
 C         1.5934871557       -0.5818943383       -1.1253275361
 C         1.7831625518        0.2418616388        0.2063399953
 C         2.6270283312        1.5823478112        0.2996423834
 O        -0.7138569413       -1.2226181355       -0.6605445610
 O         1.2927367472       -0.1256498991        1.2678073722
 C         1.9906166143       -2.0476466339       -0.8265140738
 C         2.2513957950       -0.0199301674       -2.4242082285
 C         1.8356125875        2.6598942617        1.0773683284
 C         0.6867539090        3.1525128678        0.3861668348
 C        -0.2871208983        4.1978581992        1.1732696560
 C        -1.6049905266        3.4054770721        1.2273090409
 C        -1.5574860699        2.1970051113        2.2174971799
 C         0.4383294956        4.5956452776        2.4775001072
 C        -0.4061625784        5.4421035026        0.3127529269
 O         0.3925578510        2.5486329334       -0.6688892434
 O        -2.6341325278        3.7045416069        0.6282915394
 C        -2.8502421373        1.4737794731        2.4386166311
 C        -3.0324644059        0.8379989445        3.9532474321
 C        -3.6835493824       -0.6119596542        4.0981640612
 C        -2.4900239407       -1.5562531163        3.7178652072
 C        -1.9904913317       -2.7785422424        4.5823810466
 O        -2.7154650297        1.5029743182        4.9492599761
 O        -1.7670476713       -1.2451346952        2.7654154894
 C        -4.0891674531       -0.8069579073        5.5815074974
 C        -4.8614096856       -0.8090531432        3.0756871230
 C        -0.3737084749       -2.5686482945        4.8305708579
 C         0.5490164724       -3.4658152043        3.9730817387
 C         0.3243481884       -4.9240334406        3.9451576409
 C        -0.8859640009       -5.1462874954        2.9084464830
 C        -1.9494394815       -6.2983744434        3.3522771871
 C         1.6882862101       -5.6033960026        3.5330619443
 C        -0.0841499187       -5.5247183113        5.3840488764
 O         1.2554775968       -2.8757720360        3.2106754820
 O        -0.9253942732       -4.4379280712        1.9807786363
 C        -3.1942319139       -6.1858127039        2.5223824054
 C        -4.5240027791       -6.3573462681        3.4601869855
 C        -5.8763602259       -6.0435867720        2.7897784358
 C        -5.8797160137       -4.6788850089        2.1255843451
 C        -7.0308436921       -4.3751283754        1.1342665780
 O        -4.4045198030       -6.8440227996        4.5790114725
 O        -5.1225454104       -3.8165514923        2.5630986412
 C        -6.0332846283       -7.1785287658        1.7328017681
 C        -6.8125240524       -6.1972866113        3.9132902623
 H         6.6359214928        5.5856081083        1.0425665769
 H         5.3371736785        5.6070362457        2.0039289510
 H         5.9863165977        4.0375632421        1.3968710349
 H         5.4534574014        3.1554689540       -4.0377173344
 H         4.6480173056        1.8221378568       -3.2090923956
 H         3.7283898211        6.1757607466       -2.1512716571
 H         4.7572297162        5.6768961488       -3.5737452338
 H         5.2173171838        6.9242190313       -2.4100717297
 H         7.4579383818        4.5055925662       -0.9111435439
 H         7.3250219094        4.6501615115       -2.6438960445
 H         7.2867683792        6.1145340590       -1.5679922541
 H         2.5733149316        2.9599501604       -2.9433001995
 H         3.1905218536        4.4996629428       -3.5772216474
 H         0.1882671591        1.8797124138       -7.9644331547
 H         1.6891963024        0.9738740260       -7.5147827440
 H         0.5239873823        3.6836558977       -3.6558794055
 H        -0.1777744137        4.8237742538       -4.9275195377
 H         1.3789197306        5.0045325519       -4.3221313658
 H         2.1655135524        4.9951145126       -6.8949163140
 H         2.4866796655        3.4713487696       -7.6730000569
 H         0.9227826468        4.0787260236       -7.7278972686
 H        -0.1171568370       -0.5937296484       -8.0486426241
 H        -1.2377909778        0.2070073110       -7.0773388009
 H        -2.8776555068        0.3544660967       -2.6866359735
 H        -2.2450255515       -1.3365309611       -2.4823466177
 H        -2.5296944136       -3.0762865336       -5.5194629389
 H        -1.0809319988       -3.3133320569       -6.5785226900
 H        -2.0505884894       -1.8794237411       -6.8260917301
 H        -0.6372924249       -2.5834864899       -3.0847232011
 H        -0.4016795852       -3.6853040405       -4.4540534083
 H         0.8979109320       -2.6211477695       -4.0019375003
 H         0.0333169111        0.1628092600       -3.3468994334
 H        -0.8407874337        1.3928767032       -2.3565903727
 H         3.5600943341        1.3131993532        0.8576785226
 H         2.7718354946        2.0405708443       -0.6736464187
 H         2.3895605026       -2.3660891330       -1.8435218608
 H         1.2035756118       -2.7258299618       -0.4149814380
 H         2.8590786329       -2.1922167321       -0.0660566172
 H         1.8984866352        1.0186024123       -2.4813784361
 H         3.3415401521       -0.1078615638       -2.3053934914
 H         1.9880435749       -0.5020180081       -3.3151367138
 H         2.4516593626        3.5673079813        1.2725316943
 H         1.4307390788        2.3361065190        2.0412586167
 H        -0.8404945662        1.4892386193        1.8340844833
 H        -1.1809808032        2.6480073685        3.1806558031
 H         1.4586599178        4.9919957722        2.2285817487
 H         0.4695860999        3.8250193277        3.2194562303
 H        -0.1431435638        5.3408396643        3.0080312451
 H         0.6731733400        5.6120177616        0.0370362040
 H        -1.0498039837        5.3258868771       -0.5828738791
 H        -0.6327318394        6.3087287304        0.9742697508
 H        -3.6774405477        2.1014981064        2.3596221866
 H        -3.0000707162        0.6992172411        1.7243194153
 H        -2.4097359177       -2.8975859646        5.6216831682
 H        -2.3246122727       -3.6425525819        4.0150129901
 H        -4.6920261064        0.0636390620        5.9037132942
 H        -3.1978264690       -0.8954034421        6.1864952896
 H        -4.6855788899       -1.7337578174        5.6482925974
 H        -5.4758224355        0.0532596886        3.2508159821
 H        -4.5095282043       -0.9796241312        2.0752488080
 H        -5.3607200714       -1.7835935033        3.3268260487
 H        -0.1247625647       -2.7372471337        5.8746808748
 H        -0.1865325550       -1.4973362422        4.6404663071
 H        -1.4861977300       -7.2835917830        3.2337790742
 H        -2.4352503117       -6.1674433310        4.3540656423
 H         1.5315442786       -6.6315153135        3.4864144139
 H         2.5181751030       -5.4699029300        4.2347326134
 H         1.9155676446       -5.1277752956        2.5711184454
 H        -1.0772495060       -5.2657429031        5.5991029570
 H         0.0703919566       -6.5548914637        5.2000237150
 H         0.6710138223       -5.1119571427        5.9699912227
 H        -3.2682715089       -5.1253144145        2.1756373376
 H        -3.1946545094       -6.8266248531        1.6624386060
 H        -6.9807257361       -3.4065797741        0.6526299225
 H        -7.0208414938       -5.1882740230        0.3710264961
 H        -7.8914291059       -4.2414041130        1.8202072071
 H        -7.0233618001       -7.2128505873        1.2592997198
 H        -5.8207693327       -8.0707338700        2.3753769185
 H        -5.2926539760       -7.1496553883        0.9511610828
 H        -6.7858102920       -7.0500873133        4.5071774040
 H        -6.6532046661       -5.3993861222        4.6735760669
 H        -7.8211438108       -6.0027767093        3.4868658511
 Na       -0.2067036796       -2.1649479504        1.4484510208
