155

 C         6.1067742469        4.5104259851        1.3996428790
 C         5.0287304812        4.8174208113        0.4214874783
 C         5.3574807240        5.0628135404       -1.1626895007
 C         5.0195231878        3.6763466029       -2.0034085022
 C         4.6440121749        3.7574353584       -3.4146555159
 C         4.4983874939        6.2841886402       -1.6564683790
 C         6.7725840170        5.3070841954       -1.5806067448
 O         3.8805362383        5.0827070014        0.7695889270
 O         4.9745732954        2.6449913165       -1.3782272085
 C         3.1377321375        3.8377747340       -3.6827091072
 C         2.7495168840        3.3058779711       -5.0786539869
 C         1.1981289418        3.5861396197       -5.5212961597
 C         0.4848018000        2.2286394528       -5.6251365537
 C         0.7536204144        1.4572965735       -6.8901686158
 O         3.5619454416        2.6404690475       -5.7230140387
 O        -0.0999889169        1.8285230928       -4.6511607906
 C         0.4496562696        4.5904269730       -4.6632694176
 C         1.4258223550        4.3350896934       -6.8381862791
 C        -0.0921067177        0.0996941369       -6.8171449900
 C         0.3527330305       -0.8094846648       -5.7142178065
 C        -0.7951523242       -1.8827798370       -5.2145600318
 C        -1.8648960230       -1.1714897181       -4.3714400797
 C        -1.7644339519       -0.9756280466       -2.8767361342
 C        -1.5598833582       -2.5332339155       -6.3777163112
 C        -0.0582873963       -2.9517327387       -4.3602285178
 O         1.3932971905       -0.7860308800       -5.1429770082
 O        -2.8816784920       -0.8063458201       -4.9419675547
 C        -0.4654478563       -0.1475906837       -2.4579014282
 C         0.4562647686       -0.8815412771       -1.4345763215
 C         1.8920071076       -0.4108535238       -1.0164785972
 C         1.9108631923        0.1833675589        0.4081163507
 C         2.5474879607        1.5182277984        0.7846284970
 O        -0.0169722979       -1.9207475642       -0.9896660064
 O         1.2184098223       -0.3634326435        1.2653609900
 C         2.7254035379       -1.6850623460       -0.8933892760
 C         2.5040869585        0.6107318085       -2.0731972602
 C         1.6004405152        2.3701347437        1.5759337995
 C         0.4478719309        2.8186156537        0.6626704909
 C        -0.5100189803        3.9503193983        1.0342485834
 C        -1.9422200682        3.4445195475        1.4616988309
 C        -2.0971320520        2.5845555184        2.7976498743
 C         0.0135487765        4.8157208555        2.1809581133
 C        -0.6269753213        4.8649625724       -0.2925770190
 O         0.4341017648        2.2164346867       -0.3530803738
 O        -2.8739053085        3.9471045052        0.8486211120
 C        -2.9441002597        1.3088163681        2.5219769851
 C        -3.5480963018        0.8084348457        3.8078976806
 C        -3.8954847281       -0.7577400831        3.8173988643
 C        -2.6211126840       -1.5257147717        3.6723028845
 C        -1.8098139070       -2.1929553397        4.8458678188
 O        -4.0521921716        1.5597733764        4.6620363096
 O        -1.9736706208       -1.5114769989        2.6415260559
 C        -4.6667275193       -1.1260625612        5.1281527751
 C        -4.8679667287       -0.9777369708        2.6435966683
 C        -0.2935310173       -2.0989422091        4.6693792904
 C         0.4928496991       -3.2091700183        3.9962979911
 C         0.2489390453       -4.7399240886        3.9619719712
 C        -0.7579219959       -5.2019062032        2.8043160442
 C        -1.6804050846       -6.4748252868        3.0736786720
 C         1.5879514900       -5.3610729879        3.7632695816
 C        -0.3757251797       -5.2491883476        5.3857017937
 O         1.4637253501       -2.8593126227        3.3393362565
 O        -0.9440591619       -4.5378489788        1.7619467121
 C        -2.9527715202       -6.4306815720        2.2042897442
 C        -4.1325723390       -6.3614527826        3.1303238359
 C        -5.5264465844       -6.2452767867        2.5830741373
 C        -5.6137414347       -4.8342293169        1.8413255877
 C        -6.8988959299       -4.5166770940        1.0864098063
 O        -3.9376320220       -6.5075262725        4.3702473121
 O        -4.7234470173       -3.9935474030        1.8711428867
 C        -5.7503301433       -7.3494229412        1.4267466910
 C        -6.7103149627       -6.3712219947        3.5304625482
 H         6.2236607424        5.4492885904        1.9684274499
 H         5.9242839136        3.9351220752        2.2570280785
 H         7.0839004872        4.3440422537        0.9292920929
 H         5.0713724844        4.6232964008       -4.0306715421
 H         5.0757375902        2.8503912488       -3.8440178174
 H         3.5359187262        6.0847655731       -1.2126187547
 H         4.3847889507        6.3442069993       -2.7223704279
 H         4.9339298440        7.2514458560       -1.3418352142
 H         7.5199863940        4.6630938806       -1.1013422032
 H         6.9497608226        5.2406872608       -2.6176579427
 H         7.0493450200        6.3682487657       -1.3506111614
 H         2.6075135884        3.2988039986       -2.9024885179
 H         2.9107518903        4.9279867147       -3.7005583844
 H         0.3690441817        2.0301321387       -7.7325608504
 H         1.8004263104        1.2051699877       -6.9621218261
 H         0.3407844921        4.2764268805       -3.6107833567
 H        -0.5418398100        4.7717743047       -4.9638606641
 H         1.0217635703        5.5443800647       -4.7020010532
 H         1.5738542893        5.4492741613       -6.5751757067
 H         2.3384845129        4.0136522659       -7.3512156856
 H         0.6669040806        4.3109070618       -7.5472596776
 H         0.0712969466       -0.3926489213       -7.7421956848
 H        -1.1198475415        0.3817349985       -6.7554072312
 H        -2.5999184997       -0.3371258766       -2.5391597985
 H        -1.6774495280       -1.9506257324       -2.3391314274
 H        -2.5749432106       -2.7740088081       -6.0178908117
 H        -1.0565314115       -3.4193451594       -6.7682734980
 H        -1.7816487557       -1.8764765656       -7.1821185022
 H        -0.6967658571       -3.8133026571       -3.9829762436
 H         0.5818364564       -3.6312768981       -4.9581156836
 H         0.5089464637       -2.5718893626       -3.5588552802
 H        -0.1118344428       -0.0167552243       -3.4342254051
 H        -0.7542829662        0.8148569211       -2.0172358565
 H         3.4117469272        1.3702806753        1.4061143175
 H         2.9196195606        2.1154930968       -0.0927956300
 H         2.8391139845       -2.1006240554       -1.9016226549
 H         2.1364971776       -2.4113847834       -0.2598174668
 H         3.6989182218       -1.6222032503       -0.3898752152
 H         1.9385784931        1.5430934824       -2.0911156508
 H         3.4022814308        0.9515961323       -1.6119888788
 H         2.7508802963        0.1446184533       -3.0641670971
 H         2.1432022379        3.2358591159        1.9745081048
 H         1.1946356801        1.7911674278        2.4409190283
 H        -1.1005870825        2.3613750680        3.2247517872
 H        -2.5963396878        3.1951373408        3.4959090557
 H         1.0194567520        5.0866513172        1.9491977317
 H         0.0421962539        4.2301835995        3.0967702411
 H        -0.5996460544        5.6863550796        2.2110640033
 H         0.3841997118        5.0520394454       -0.7683218281
 H        -1.1481890531        4.2315660721       -1.0288862813
 H        -1.2512830542        5.6579422226        0.0129099326
 H        -3.6925601784        1.6342645701        1.8521754804
 H        -2.3597814500        0.4387629716        2.1657734011
 H        -1.9613649862       -1.9399285395        5.8771038894
 H        -2.1312583707       -3.2212921486        4.7379421188
 H        -5.6702451447       -0.7804918365        5.0707165691
 H        -4.2806595946       -0.6137075473        6.0190633782
 H        -4.6864341443       -2.2199102043        5.2868495685
 H        -5.6819921258       -0.2595560592        2.7711281245
 H        -4.2496105726       -0.7611498745        1.7326934482
 H        -5.2036323060       -1.9720955257        2.6848276379
 H         0.1816499532       -2.0854113162        5.6816287999
 H        -0.1236378222       -1.2224333692        4.0504794545
 H        -1.1192295708       -7.3942051140        2.8755049234
 H        -2.0317793202       -6.3120849034        4.0613534419
 H         1.4463254857       -6.4403311659        4.0250775287
 H         2.2753972335       -4.8341093697        4.3777424872
 H         1.8763525354       -5.3578076593        2.7649339952
 H        -1.4269323195       -4.9588149525        5.3139788512
 H        -0.2150989491       -6.2720889607        5.3676078967
 H         0.2797093361       -4.6736488913        6.0762904577
 H        -2.9148828872       -5.7327852509        1.3812305094
 H        -3.0454277557       -7.3689908177        1.6113036394
 H        -7.4423364120       -5.4488414386        0.8095941390
 H        -7.4799055117       -3.8050908929        1.7410669541
 H        -6.5276857571       -3.9990906251        0.1757519116
 H        -6.7921793405       -7.2467701061        1.2424823337
 H        -5.6066476095       -8.4048841649        1.6706409002
 H        -5.1661135936       -7.0026274016        0.5399009301
 H        -6.9996150133       -7.4500277049        3.5517633622
 H        -6.2893547311       -6.2980878893        4.5613374793
 H        -7.7252807966       -5.8998235667        3.2671500528
 Na       -0.1261319726       -2.2624863658        1.2998484975
