155

 C         6.0224793934        4.3419568825       -1.4687331816
 C         4.8820605923        4.0370485517       -0.5575624557
 C         4.1651316904        5.4741546030        0.0822835980
 C         3.2722615265        5.9550673208       -1.1126190248
 C         3.8309643272        6.8039047053       -2.2207935073
 C         3.3885140451        5.1913482891        1.3913990773
 C         5.2840923466        6.4717647783        0.3252020990
 O         4.4641048569        2.9475734818       -0.3307282265
 O         2.1028462385        5.6628005532       -1.1253567782
 C         2.7883717723        7.0508461435       -3.3261598849
 C         2.6446694009        5.8394809773       -4.2692068130
 C         1.6336714240        5.8854028553       -5.5571838082
 C         0.9632541580        4.4090987706       -5.6577762315
 C         1.7381811243        3.1426153991       -5.2128196036
 O         3.4251613139        4.9286814010       -4.1841227941
 O        -0.1845165957        4.3649980860       -6.0958688309
 C         0.6001474662        7.0370114410       -5.3065748385
 C         2.5111344693        6.1616898008       -6.8304940539
 C         0.8424647640        1.8811552972       -5.4398215923
 C         1.6595389449        0.7409368040       -4.8793531846
 C         1.0720216066       -0.7425523094       -5.0753739810
 C         0.1346516082       -1.0735566047       -3.8601327607
 C         0.6554968162       -1.8498212784       -2.6716949570
 C         0.0861302075       -1.0633818791       -6.2656997821
 C         2.2876954459       -1.7696764349       -5.1247670840
 O         2.7583445083        0.7346482019       -4.3039889913
 O        -0.9258434924       -0.5280907338       -3.7515943168
 C         1.7393139545       -1.0638913099       -1.8926199224
 C         1.5069242148       -1.2495927571       -0.3815110389
 C         2.5707136045       -0.6489797284        0.6566320015
 C         1.7192144809        0.5199601062        1.4146566963
 C         1.3312923028        1.7957911072        0.6548501722
 O         0.3977335798       -1.5530437092       -0.0126621150
 O         1.2508347871        0.2506056546        2.4803629059
 C         3.0097539088       -1.7552935762        1.6936573638
 C         3.7952537274       -0.0128451671       -0.0061076352
 C         0.3651314476        2.7667252181        1.2804991685
 C        -1.0750930144        2.3327738629        1.1003762551
 C        -2.1411051995        3.4962664687        0.9828873327
 C        -3.5264677569        2.9180878506        0.7762310883
 C        -3.9711354360        1.8158942149        1.8755097312
 C        -2.1044864616        4.2502916797        2.4062376840
 C        -1.7688710262        4.5456570725       -0.0818230964
 O        -1.3810768120        1.1547108029        0.9643737589
 O        -4.2611546031        3.1953993973       -0.1036621453
 C        -4.2082874928        0.4973772292        1.2181830376
 C        -4.9510142056       -0.4607344317        2.2354791124
 C        -4.8342711050       -2.1043233542        1.8402877838
 C        -3.4330666731       -2.4699247633        2.4693759056
 C        -3.2950701398       -3.2257979953        3.8024139342
 O        -5.5315444627       -0.1073757984        3.2425548812
 O        -2.4866489682       -2.0527152829        1.7919861044
 C        -6.0284240139       -2.8122208242        2.5840521759
 C        -4.8526815553       -2.2627949900        0.3829847476
 C        -2.3678797262       -2.6269078481        4.8495253508
 C        -0.9076231710       -3.0515197719        4.7332241024
 C        -0.7178881085       -4.6374308107        4.7632882296
 C        -0.6675711472       -5.1775572654        3.2353834282
 C        -0.6672694736       -6.7010416229        3.0469231080
 C         0.7267483953       -4.7935394649        5.3404002621
 C        -1.7937082160       -5.3357674097        5.6301114600
 O         0.0309421012       -2.3171305487        4.6555805646
 O        -0.4716307306       -4.3325050446        2.3627375270
 C        -1.3270528958       -7.2628255558        1.7726988876
 C        -2.4982885672       -8.1805564919        1.9836731659
 C        -3.3924743873       -8.7192781703        0.8635977638
 C        -4.0203747999       -7.5291511363        0.1081012595
 C        -4.7460244078       -7.7310366563       -1.2259314237
 O        -2.7297940078       -8.5140297131        3.1502707198
 O        -3.8639279533       -6.3295866686        0.3888601738
 C        -2.4972536822       -9.7093836121        0.0266570325
 C        -4.6619628528       -9.5130016235        1.3012567228
 H         6.0818211503        3.5469997863       -2.1888202252
 H         5.7689833352        5.2866954734       -2.0131937433
 H         7.0063715185        4.4240533132       -0.9745159835
 H         4.1448906622        7.7651747126       -1.7766901382
 H         4.6981929895        6.3464687852       -2.7734849964
 H         2.8667338533        4.2147518007        1.2984931149
 H         2.5957356754        5.9228239114        1.4763552118
 H         4.0050008155        5.2181202975        2.2711233178
 H         6.1839804460        6.2590844583       -0.2411524078
 H         4.8913595664        7.4456947970        0.1149002444
 H         5.5130823091        6.3178401851        1.4320069133
 H         1.7932232958        7.3092957357       -2.7790440356
 H         3.0438583894        7.9305019791       -3.9424688204
 H         2.5852759102        3.0616226417       -5.8125921869
 H         2.0661152869        3.2047917719       -4.1910762749
 H         0.1547768143        6.7561832423       -4.4344080320
 H        -0.1950219620        7.1544088706       -6.0782150732
 H         1.0906710281        7.9671174391       -5.0404956070
 H         3.4965299997        6.0360420409       -6.5588761010
 H         2.2940656123        5.3460963801       -7.6012343009
 H         2.5421718143        7.1227073672       -7.2876803043
 H         0.4780610811        1.6477219282       -6.4142248843
 H        -0.1052088851        1.9088562650       -4.8651695741
 H        -0.1265690697       -2.0229064034       -1.9451493654
 H         1.2572526984       -2.7293472772       -2.9794908337
 H        -0.3977529833       -2.0293281619       -5.9969103481
 H         0.6169267055       -1.1276600129       -7.2179352205
 H        -0.6778618384       -0.3215034253       -6.4424643110
 H         2.4709200343       -2.4641985990       -4.2950899826
 H         2.0500705348       -2.3904116980       -5.9982929119
 H         3.1313742151       -1.1146140083       -5.4055913076
 H         2.7810675078       -1.3888938053       -2.1234646125
 H         1.6177485864        0.0071073508       -2.1457341841
 H         2.2630575224        2.3249775094        0.3955038435
 H         0.8885161789        1.4618925499       -0.3435149625
 H         3.5408002848       -2.4871033914        1.1576337496
 H         2.2003576035       -2.2385271328        2.1461733025
 H         3.6769980201       -1.3125935661        2.4146069071
 H         3.7239098647        0.8080952166       -0.7206989715
 H         4.4556585041        0.2578692938        0.8088543784
 H         4.2143628242       -0.8207151635       -0.5481807371
 H         0.6480052733        3.7037250324        0.7546514689
 H         0.6870033928        2.8494134773        2.2966486276
 H        -3.2057780417        1.7612057308        2.5821278819
 H        -4.8120082429        2.2900862281        2.3221047265
 H        -1.0992539916        4.4634450022        2.6100873441
 H        -2.5960119614        3.7774385356        3.2457263816
 H        -2.5565182171        5.1771397306        2.2515648663
 H        -0.9890702360        5.1499452526        0.3255456209
 H        -1.5357661279        4.1362322036       -1.0338423089
 H        -2.6557984771        5.1482178811       -0.2778461872
 H        -4.8736117065        0.6027807525        0.3789535076
 H        -3.2732600283       -0.0856463594        0.9012671008
 H        -4.3162203508       -3.1822930176        4.1597222502
 H        -2.9803458902       -4.2170385682        3.2890380214
 H        -6.8321956117       -3.0385981743        1.9170981483
 H        -6.3627344648       -2.1518553242        3.3557842678
 H        -5.6222776762       -3.7472645964        2.9809894551
 H        -5.7516343464       -1.7739387796       -0.0117028777
 H        -4.0908592829       -1.6989405566       -0.1914387507
 H        -4.7544847833       -3.2934454843        0.0554678103
 H        -2.7541715749       -2.9508202564        5.8511885748
 H        -2.2885984747       -1.5060272574        4.6828765818
 H         0.3547689687       -7.0219447402        3.0114127082
 H        -1.2024215935       -7.1623322074        3.8599473277
 H         1.1466815350       -5.8133101786        5.5976170218
 H         0.8438018437       -4.2585918088        6.3325550362
 H         1.4643984006       -4.3737191160        4.5768042193
 H        -2.8604615827       -5.3579624465        5.2921863814
 H        -1.6508182558       -6.4784324117        5.5698600311
 H        -1.8026447942       -5.0866576382        6.6792324567
 H        -1.6286592624       -6.4185787699        1.0571401402
 H        -0.5586209263       -7.7848583183        1.1869741831
 H        -5.6096117357       -7.0846871966       -1.1771082436
 H        -4.1733115424       -7.3658174198       -2.0439254188
 H        -5.0928390115       -8.7462377482       -1.3115663680
 H        -3.1355844437      -10.0413654761       -0.7482367375
 H        -2.0144708468      -10.4793889925        0.5828045247
 H        -1.6697412915       -9.1368854995       -0.5052906934
 H        -4.3930023513      -10.5498014255        1.7223108112
 H        -5.1930624453       -9.0771528097        2.1445554453
 H        -5.4549598614       -9.4831365234        0.5673033320
 Na       -0.4343475392       -1.4854203705        2.2717487892
