155

 C         5.5725246656        4.1692244831       -1.8679861779
 C         4.4539453904        4.2718484632       -0.8214300100
 C         4.0301952645        5.5912136772       -0.0578954197
 C         3.0242180753        6.2600650184       -0.9168424222
 C         3.6700387775        7.2186684473       -2.0206822874
 C         3.3293482409        5.2679286568        1.2940916019
 C         5.3781021507        6.3667150699        0.2499245394
 O         3.7123224205        3.3210300570       -0.6610250258
 O         1.8141687117        6.0863611974       -0.8194300753
 C         2.6574699677        7.4144949026       -3.1660460585
 C         2.9203633079        6.3362832524       -4.2252218778
 C         2.0471339989        6.0984189378       -5.4698611086
 C         1.3803275269        4.6431561879       -5.4871489671
 C         2.0576423472        3.4757505226       -4.6757153172
 O         3.7858731160        5.5326227091       -3.9527219041
 O         0.2805515256        4.4797394663       -6.0065555427
 C         0.9038047440        7.0668351496       -5.5742230690
 C         2.8739092566        6.1392468756       -6.7768793396
 C         1.3612245766        2.1491688512       -5.2502751277
 C         2.0474413790        0.8407867542       -4.6288600028
 C         1.4016606024       -0.5518608643       -4.8855710801
 C         0.2631427375       -0.8095743073       -3.8082969153
 C         0.4814287562       -1.8005297148       -2.5241843566
 C         0.5583808841       -0.5868621600       -6.3377494526
 C         2.5417432822       -1.6616460774       -4.9124831890
 O         2.8652030077        0.9302694299       -3.7418385154
 O        -0.7208040541       -0.1229840224       -3.8213679961
 C         1.7563521391       -1.5376516723       -1.6545039153
 C         1.2518703171       -1.3572428342       -0.1996540717
 C         2.2673572311       -0.7045434457        0.8384477077
 C         1.5211529356        0.5626861051        1.3858409886
 C         1.0483067819        1.6059727031        0.4117076094
 O         0.1311305943       -1.5790732989        0.1555331876
 O         1.1360289646        0.5737967101        2.5266855105
 C         2.4406185941       -1.7968418694        2.0033228597
 C         3.6545499373       -0.2052759357        0.2624850948
 C         0.1922419664        2.6964289541        0.9851086639
 C        -1.1573149991        2.2154428624        1.3939985901
 C        -2.3527084150        3.1668538333        1.4660985781
 C        -3.5485390810        2.4333104042        0.8336199677
 C        -4.3364642932        1.4402806753        1.6805906745
 C        -2.5949017656        3.2786033597        3.0569526144
 C        -2.0749951893        4.6446832990        0.9398987381
 O        -1.4323968416        1.0642061018        1.5071566021
 O        -3.7156022179        2.5149766326       -0.3429392351
 C        -4.8828575170        0.3101174875        0.8436658228
 C        -5.2788973622       -0.9284847360        1.9223866766
 C        -4.8406709617       -2.5328388195        1.6021976751
 C        -3.5529129558       -2.6284090861        2.3121992231
 C        -3.6039822517       -3.2383841419        3.7976551963
 O        -5.7935671340       -0.6396405096        2.9460587626
 O        -2.5134700905       -2.3959773043        1.8228792076
 C        -5.9677487068       -3.4395274773        2.1951184932
 C        -4.6836977197       -2.7310332700        0.0330546848
 C        -2.5172692315       -2.4624064369        4.5840237771
 C        -1.0978084619       -3.0380293429        4.1521336225
 C        -0.6605586652       -4.4459363672        4.5547383337
 C        -0.5211310498       -5.2826403118        3.1561548024
 C        -0.3429514617       -6.7603115993        3.3230967062
 C         0.7539243239       -4.5761093681        5.3089508967
 C        -1.6613147142       -5.1295326844        5.4903900730
 O        -0.2720179452       -2.3505040528        3.5169527101
 O        -0.4601029642       -4.6530317624        2.1067744583
 C        -0.9447086111       -7.5646021022        2.0660727536
 C        -2.3255522586       -8.1691609419        2.1175519361
 C        -2.9121111507       -8.6941192748        0.6769627441
 C        -3.6761125394       -7.5582961002        0.0164889234
 C        -4.5107673631       -8.0263233095       -1.1625470181
 O        -2.9773504232       -8.1928574359        3.1146635387
 O        -3.7597835697       -6.4114385315        0.4419802200
 C        -1.7286368726       -9.1370764379       -0.3288703539
 C        -3.8244874892       -9.8781292391        1.0500707192
 H         5.4099323229        3.2238284600       -2.2995659350
 H         5.6116073114        4.8178347190       -2.7200799638
 H         6.5368599453        4.2040703477       -1.3382312111
 H         3.8392447654        8.1536397397       -1.4519962299
 H         4.5356845057        6.9099979458       -2.5318763449
 H         2.3132441454        4.9771009348        1.1555900314
 H         3.3474233286        6.0738900166        2.0008293038
 H         3.8994896149        4.4823986410        1.8930872111
 H         5.8519448123        6.5770802113       -0.6880552389
 H         5.2051001153        7.2926389224        0.8025022434
 H         5.9689436408        5.7921260225        0.9290783440
 H         1.7192167129        7.2336777751       -2.6924163174
 H         2.6260715140        8.4510830684       -3.4358870645
 H         3.1675331920        3.5560620398       -4.8025956989
 H         1.8622800655        3.6484377037       -3.6025878234
 H         0.1994974623        6.8230823436       -4.8544980415
 H         0.4277093867        6.8477598761       -6.5847608031
 H         1.2186695630        8.0555471819       -5.6713950730
 H         2.3093632971        5.5739744712       -7.5698478415
 H         2.9108673477        7.2016519103       -7.1253793350
 H         3.8814157004        5.8720304697       -6.6262709176
 H         1.4636742931        2.2621745901       -6.3229254703
 H         0.3422302192        2.1096916256       -4.9490358498
 H        -0.4686572423       -1.8255370829       -1.8931214421
 H         0.5867135485       -2.7294541121       -3.0181658831
 H        -0.2201745484       -1.3759994432       -6.3497257877
 H         1.2648523093       -0.9364433781       -7.1463510233
 H        -0.0279666685        0.2280115702       -6.7830625692
 H         3.2145407208       -1.5288229482       -4.0483365569
 H         2.0639270685       -2.6640215095       -5.0547503585
 H         3.2142281495       -1.5845131937       -5.7106176132
 H         2.4441401877       -2.3145757486       -1.5792276495
 H         2.3519698623       -0.6968828733       -1.9474241558
 H         2.0388544420        2.0357086971        0.0653234416
 H         0.6656481546        1.2575145075       -0.5313822966
 H         3.1452605712       -2.4859032898        1.6221474584
 H         1.5139235003       -2.2366938384        2.3124977906
 H         2.8192828929       -1.2919165564        2.8512455529
 H         3.5743390323        0.5414765312       -0.5172857328
 H         4.3549183888        0.0929969597        1.0183966482
 H         4.1490550346       -1.1391509767       -0.1692725568
 H         0.2336927288        3.5019275263        0.2847219190
 H         0.7378037841        3.2169151258        1.7992008193
 H        -3.6675961357        1.1142017910        2.4671250977
 H        -5.1981748200        1.9128341018        2.1079820819
 H        -1.8245906951        3.7757107107        3.5497365090
 H        -2.6172706041        2.2896615908        3.4403770169
 H        -3.5490197379        3.7568474831        3.1456672050
 H        -1.5669804801        5.3393680469        1.6724263595
 H        -1.4055933174        4.4996116346        0.1104535614
 H        -2.9686453710        5.0943233552        0.6295560189
 H        -5.9404945081        0.4559539453        0.5349835725
 H        -4.1830748855        0.0263269580       -0.0178295799
 H        -4.5580311376       -2.8993065164        4.2098326110
 H        -3.4842383554       -4.2726895640        3.7095790824
 H        -6.7435979747       -3.5160948630        1.4348560936
 H        -6.3421741645       -2.8619738926        3.0516464672
 H        -5.5795228215       -4.3504931840        2.5221504170
 H        -5.2431530864       -2.1415217234       -0.7177571413
 H        -3.5834016711       -2.5329228749       -0.0293315312
 H        -4.7878138478       -3.7054541372       -0.3535382677
 H        -2.7279405255       -2.6303930084        5.6649516876
 H        -2.4602821411       -1.3852299460        4.3962088224
 H         0.7063533676       -7.0378514680        3.4287544874
 H        -1.0211330379       -7.0480776764        4.1266930934
 H         1.0274850146       -5.7039911276        5.2633220458
 H         0.7775356211       -4.3595041444        6.4025133740
 H         1.5291967534       -4.0296108461        4.7388093809
 H        -2.6661370888       -5.1929799609        5.2749125129
 H        -1.4305391129       -6.1250753991        5.8017027424
 H        -1.6904207355       -4.7558505232        6.5190334508
 H        -0.9917532445       -6.8263290192        1.3319163088
 H        -0.2719986359       -8.4120615922        1.8967622877
 H        -4.7879108782       -7.2546148147       -1.8179695824
 H        -3.8861245756       -8.7709238387       -1.7210676811
 H        -5.3683589467       -8.5995502216       -0.7545084052
 H        -2.0992299831       -9.7881147939       -1.1533592390
 H        -1.1354745976       -9.8405393374        0.2095933896
 H        -1.1524109927       -8.2976148762       -0.6407698107
 H        -3.2096492768      -10.7191318047        1.5860822672
 H        -4.6963266567       -9.6584104459        1.7356858444
 H        -4.2616773684      -10.3973002241        0.1645120851
 Na       -0.9846861704       -0.9056047249        1.9123387693
