155

 C         5.2007241392        3.9756019016       -1.8246336735
 C         4.0992899116        4.3119597457       -0.7782542804
 C         4.0583994913        5.7987146603       -0.0796384791
 C         2.8502926243        6.5348672427       -0.8294931011
 C         3.1299173963        7.6859550806       -1.7447450402
 C         3.7414217678        5.4687876485        1.4169465922
 C         5.3530040567        6.5620032923       -0.1174664184
 O         3.2973448331        3.4883681529       -0.4252778129
 O         1.7257835484        6.0797531508       -0.6191590304
 C         2.3291818262        7.5046889361       -3.0876139741
 C         3.1458666731        6.6946002358       -4.1180748130
 C         2.4643761545        6.2593967483       -5.4909445099
 C         1.6478764213        4.9118440239       -4.9789296228
 C         2.5194147218        3.7055915994       -4.6038047314
 O         4.3088648048        6.4537673303       -3.8814423284
 O         0.4397015414        5.0962040430       -5.0216523934
 C         1.4648374643        7.2209394732       -6.0950516356
 C         3.6229140721        6.0114924455       -6.5073099315
 C         1.8987812960        2.3825995628       -5.2279916490
 C         2.3307962982        1.1550299278       -4.3788857953
 C         1.8567229046       -0.2939748023       -4.9365565321
 C         0.8000293585       -0.7018992601       -3.8316979748
 C         1.1281068286       -2.0359493731       -2.9799733023
 C         1.0355610520       -0.1481258096       -6.2605515910
 C         3.1362054926       -1.2001019624       -5.1143368105
 O         2.9908781366        1.1456707520       -3.3098586037
 O        -0.1900044449       -0.0616612216       -3.6159365903
 C         1.9785199222       -1.7909278793       -1.8335583599
 C         1.3997374677       -1.1767911458       -0.4975181720
 C         2.2271314137       -0.2836375514        0.4677030648
 C         1.3184485881        0.5986922569        1.2938938422
 C         0.3903100733        1.6122095839        0.5562778384
 O         0.1887990636       -1.2826190085       -0.2896381602
 O         1.0999626378        0.3455680342        2.4668353640
 C         2.8996708286       -1.2273773121        1.4685358107
 C         3.3135869696        0.5595356978       -0.2465039828
 C        -0.3154748178        2.6164819588        1.4564243738
 C        -1.7454197667        2.1563780306        1.9434717777
 C        -3.0419909928        3.0280252552        1.7984128983
 C        -4.1803383720        2.2388137463        1.0233387204
 C        -4.7471420485        0.9667491178        1.7336297903
 C        -3.5945809713        3.1004359081        3.2713646136
 C        -2.8150611740        4.4393727909        1.1894215453
 O        -1.9723597211        0.9625257288        2.1901814696
 O        -4.7099884429        2.6095204137       -0.0202470636
 C        -4.9006831714       -0.1648425383        0.7534819338
 C        -5.6855410952       -1.3809962249        1.3644473506
 C        -4.9919574403       -2.8812935956        1.2495772063
 C        -3.6878550360       -2.9743898132        1.9132498268
 C        -3.3909453397       -3.8368810767        3.2063391740
 O        -6.7704795510       -1.3021668428        1.9127147701
 O        -2.7922403339       -2.1694412284        1.6375075705
 C        -5.9442562903       -4.0042512629        1.7894586936
 C        -4.8672076019       -3.0885298645       -0.3725307694
 C        -2.6723154329       -2.9828909027        4.1733751000
 C        -1.2246882917       -3.2634274328        4.1679457138
 C        -0.7824141007       -4.7048966153        4.8872384115
 C        -0.5042443948       -5.5948874903        3.5317724515
 C        -0.3030800958       -7.1571661384        3.7643689827
 C         0.5738788327       -4.5714788907        5.5798031150
 C        -1.8419111334       -5.3571819344        5.7960887112
 O        -0.3130319534       -2.6204961964        3.6689523421
 O        -0.6839273780       -5.2474870387        2.3935871228
 C        -0.5525739501       -7.9677196993        2.4745150010
 C        -2.0481550034       -7.9735767570        2.0650450912
 C        -2.3637161882       -8.6121942593        0.6501511971
 C        -3.3979582910       -7.6988001994       -0.0786916896
 C        -4.5763803666       -8.4230294216       -0.6890900077
 O        -3.0004127519       -7.4566588244        2.6641220833
 O        -3.2700754295       -6.5263006140       -0.3528906511
 C        -1.1107097693       -8.5712940387       -0.3103869286
 C        -2.7600173354      -10.0881352632        0.7999795556
 H         4.9663868053        3.1964055220       -2.5359721483
 H         5.7632184392        4.8139878379       -2.3086661378
 H         5.9712364436        3.5836917020       -1.1166433886
 H         2.9177152723        8.6469834350       -1.1515983479
 H         4.1368684833        7.9000008063       -2.0705997186
 H         2.8197222584        4.9002454863        1.5655032710
 H         3.5587518032        6.3896222805        1.9036698043
 H         4.4301944326        4.7581387928        1.9247926095
 H         5.9682172068        6.4977240693       -1.0204467708
 H         5.3452022197        7.6382053991        0.0572391639
 H         6.0466023261        6.2781139916        0.7611474440
 H         1.2875050779        7.1684595487       -2.8110248204
 H         2.1208385235        8.5373725125       -3.4576733592
 H         3.4650655636        3.8795105766       -5.0422265282
 H         2.6056335720        3.5519377226       -3.5498790745
 H         0.7034397169        7.5130693401       -5.3729332805
 H         1.0190807808        6.7024840844       -6.9104899513
 H         1.9407888786        8.1977895287       -6.4295026043
 H         3.3998016624        5.0743183011       -6.9185815106
 H         3.5460761888        6.8843010361       -7.2386305309
 H         4.5930961559        5.9209799910       -6.1156258887
 H         2.3133677725        2.0876733369       -6.2234398154
 H         0.7806848235        2.4849178022       -5.2491438202
 H         0.2141581076       -2.6380632263       -2.7010048681
 H         1.5915231321       -2.6881577302       -3.7516322394
 H         0.3739454846       -0.9748923538       -6.5292496543
 H         1.6539132619       -0.0345447147       -7.1550725271
 H         0.4592594751        0.7380411286       -6.2581917479
 H         3.2119113798       -1.6758751747       -4.1638258682
 H         3.0552214801       -2.1792090288       -5.6192385386
 H         4.0355245971       -0.6799431193       -5.3499896436
 H         2.3442796523       -2.8126083293       -1.5061329305
 H         2.9678685674       -1.2382587951       -2.0400873305
 H         0.8932018542        2.0295139478       -0.3639985127
 H        -0.4581294549        1.0649271828        0.1737711117
 H         3.6236953116       -1.9190296358        0.9778923644
 H         2.0903744471       -1.8520520408        1.8977171343
 H         3.5322022286       -0.5789418400        2.1514908941
 H         3.0358026484        1.0753555245       -1.1724638938
 H         3.7376600147        1.3276915653        0.3559459811
 H         4.1216691242       -0.1673733110       -0.5442832134
 H        -0.4065236252        3.4998903851        0.8479774066
 H         0.1568153457        3.0653576230        2.3617065162
 H        -4.0903794146        0.7052193414        2.5315620943
 H        -5.7179185929        1.1909697188        2.1424709815
 H        -2.8843596989        3.5437224080        3.9792546889
 H        -3.8696746229        2.0370621401        3.5216045474
 H        -4.5176611037        3.7459669948        3.2609121277
 H        -1.9235109634        4.8039853528        1.7098625733
 H        -2.6624990071        4.3597379108        0.1198375839
 H        -3.6747068833        5.1230780295        1.3011250379
 H        -5.4730643111        0.1556890108       -0.1996046021
 H        -3.8780165105       -0.5699688014        0.3623675015
 H        -4.3159364725       -4.2295694478        3.6947179500
 H        -2.8360621610       -4.7727875335        2.9179486602
 H        -6.7552769623       -4.2875342830        1.1052590425
 H        -6.3360219264       -3.7194840766        2.8017617418
 H        -5.2990749068       -4.8865205232        1.9334617446
 H        -5.8522284017       -2.9276497234       -0.8378531310
 H        -4.1990633582       -2.3795771122       -0.8646552561
 H        -4.4385664977       -4.0543237566       -0.4999208110
 H        -3.0869380744       -3.2167299351        5.1875972775
 H        -2.8375816335       -1.8973987344        3.9743259228
 H         0.6982777361       -7.2745247855        4.1109035461
 H        -0.9117774189       -7.5943662187        4.5681002280
 H         0.8142283117       -5.5235137648        6.0362189450
 H         0.5894857947       -3.7752166453        6.2995772300
 H         1.2129708432       -4.4306099842        4.7424923511
 H        -2.7565072099       -5.8234274406        5.2151561004
 H        -1.5056247578       -6.2419501410        6.4379214092
 H        -2.2802165017       -4.6507023207        6.4875332642
 H         0.0689119192       -7.4476428860        1.7263231831
 H        -0.2589127559       -9.0624048551        2.6147471992
 H        -5.3532196847       -7.6891411839       -0.9197304184
 H        -4.3125270681       -9.0719877144       -1.5040564704
 H        -5.0173718654       -9.1200927473        0.0446912508
 H        -1.5760396029       -8.4746894409       -1.2800217129
 H        -0.4005003663       -9.3404210076       -0.1621002133
 H        -0.5836026623       -7.5619963554       -0.1255372959
 H        -1.9225658218      -10.6332647290        1.2412892999
 H        -3.6136866017      -10.3389443070        1.3352837291
 H        -2.9405213318      -10.4508441064       -0.1826078541
 Na       -0.8916777442       -1.1439775222        1.8957627943
