155

 C         5.2034919595        4.3842177505       -1.2323631812
 C         4.1105806832        5.0416695113       -0.4883123230
 C         4.0655083154        6.5020843367       -0.0878803137
 C         2.8048801447        7.0892282905       -0.7468899337
 C         2.9243244670        8.3365524443       -1.6776046725
 C         3.8151243050        6.5454570948        1.4085785902
 C         5.3670590201        7.2893149901       -0.4270639567
 O         3.0865171535        4.4013703099       -0.2046809594
 O         1.6661822984        6.6674319127       -0.5819192548
 C         2.2884378879        8.0498173536       -3.0299530457
 C         3.3380124483        7.2012029044       -3.7819196458
 C         2.8638418038        6.4667528966       -5.0259451990
 C         2.0125760679        5.0243644519       -4.6462792426
 C         2.6133311554        3.8691385099       -3.8584616219
 O         4.4046448991        6.8864304669       -3.2887516497
 O         0.8180093299        4.9904785897       -4.8876103618
 C         1.9243119724        7.2638253902       -5.9595029833
 C         4.1525858999        5.9679928912       -5.8358649844
 C         2.0007952649        2.6644233245       -4.5316115623
 C         2.7161549117        1.3919483430       -4.1991047191
 C         1.9837600902        0.0033602476       -4.7021020060
 C         0.9087300570       -0.4644055587       -3.6546777992
 C         1.0745556635       -1.8052198455       -2.8592358051
 C         1.2512268077        0.2120497975       -6.0685184408
 C         3.1228506902       -1.1986718272       -4.8863268640
 O         3.7672466893        1.3880260486       -3.5356455458
 O        -0.0468115607        0.2229684045       -3.3907779870
 C         2.1230195690       -1.3926612758       -1.7481202661
 C         1.4802014506       -1.1888223856       -0.3844595755
 C         2.0571706090       -0.0726895852        0.5388867871
 C         0.8028046514        0.6316690817        1.2248103464
 C         0.1568366553        1.8878229962        0.5346732747
 O         0.5581162917       -1.9052702695       -0.0242902355
 O         0.4927421944        0.3762940896        2.3880527293
 C         2.9602292055       -0.8992768574        1.5411754185
 C         2.9165820846        0.9950112798       -0.2129720541
 C        -0.9201706307        2.5805108724        1.4118774928
 C        -2.2494715415        1.7958769310        1.6091597785
 C        -3.6369405500        2.4340648727        2.0457264480
 C        -4.6284131619        1.5630589328        1.2182348583
 C        -5.2068228302        0.2084991195        1.6525259849
 C        -3.8426215774        2.2362142752        3.5572019164
 C        -3.7530568331        3.9878297416        1.7790180345
 O        -2.3039018835        0.5943302518        1.5243705321
 O        -4.8899721862        1.9556971295        0.1000027905
 C        -5.6638132325       -0.5872945308        0.4127680767
 C        -5.8857190725       -2.1164036667        0.7899810590
 C        -4.9071658157       -3.2703417788        0.2368645519
 C        -3.6944699432       -3.1698350745        1.1341036349
 C        -3.6616515562       -3.8762146735        2.5391794384
 O        -6.8206339013       -2.5451675947        1.5174307667
 O        -2.7473626376       -2.5219311251        0.7535217266
 C        -5.7248524985       -4.6260218604        0.5412177746
 C        -4.5098589610       -3.1665243290       -1.2629404486
 C        -2.6949380203       -3.3151114030        3.5468043134
 C        -1.2847763669       -3.7848661014        3.7350466624
 C        -0.9291581546       -4.9455053601        4.8099982636
 C        -0.3034381254       -6.2064212760        4.1100061321
 C        -0.7589440835       -7.6521989492        4.4234932123
 C         0.2921759638       -4.4729649335        5.6924608584
 C        -2.1339475411       -5.1004839474        5.7595623307
 O        -0.3967083015       -3.0846642073        3.2410794713
 O         0.5804452676       -6.1331793798        3.3120106212
 C        -0.9344868497       -8.4570217467        3.0574270154
 C        -1.8117812883       -7.7929654203        1.9322203482
 C        -1.7958529598       -8.2371112485        0.4198795233
 C        -3.3292326755       -7.9205649673       -0.3393623819
 C        -4.5545074904       -8.5414150644        0.4074734640
 O        -2.5391492717       -6.8959102225        2.3112234216
 O        -3.4431867720       -7.1202840838       -1.2240597370
 C        -0.6934923110       -7.4731816293       -0.4733916162
 C        -1.5817291510       -9.7837791004        0.4587536144
 H         5.0810470389        3.3548396905       -1.3021303958
 H         5.1239642160        4.7863671059       -2.2496143708
 H         6.2507217653        4.5038839765       -0.8574025795
 H         2.3673532304        9.1947479577       -1.1715140752
 H         3.9429803927        8.6154796159       -1.9348817546
 H         2.9982510027        5.9135728613        1.6705896484
 H         3.6404660540        7.4849243071        1.9164599392
 H         4.7403559107        6.2147304618        1.9945345486
 H         5.7113564188        7.3735504147       -1.4610045861
 H         5.2582551548        8.3388061426       -0.0780074850
 H         6.1958743514        6.7416068493        0.0278827376
 H         1.3371296694        7.5527375691       -2.8899576123
 H         2.0933494988        8.9805482889       -3.6334101992
 H         3.6860140629        4.0083705821       -3.7369571014
 H         2.2401174342        3.9774970227       -2.8684355251
 H         0.9527400934        7.3353984530       -5.5337577527
 H         1.8216727635        6.6361675529       -6.8378753267
 H         2.2112235228        8.2690453148       -6.3538479267
 H         4.1797445161        4.9585293509       -6.1334385990
 H         4.1558956159        6.5188997365       -6.8138699236
 H         4.9920312775        6.2969446860       -5.3265238130
 H         2.1373159112        2.8004280938       -5.6421813041
 H         0.9194593773        2.6308661972       -4.4874750848
 H         0.0569204302       -2.0941424321       -2.3977797781
 H         1.4615792410       -2.7295218723       -3.3664562065
 H         0.6145296109       -0.5948001517       -6.3408891446
 H         1.9675265220        0.3100270667       -6.8815403703
 H         0.6380547037        1.0873058363       -5.9071760156
 H         3.8092840631       -1.0086265085       -4.0685404975
 H         2.6316953013       -2.1800181562       -5.0128276263
 H         3.7087240527       -1.1577875278       -5.7420016342
 H         2.9261296453       -2.1503856120       -1.5003211677
 H         2.5382064318       -0.4271882495       -2.0695295522
 H         1.0284749622        2.5636253663        0.4291872290
 H        -0.2443738393        1.5538511565       -0.4526025795
 H         3.7931574653       -1.2333564534        0.8878839446
 H         2.3341644593       -1.6839373922        2.0116697973
 H         3.4723332978       -0.3424730006        2.3667866364
 H         2.3089648682        1.4589520207       -0.9753943710
 H         3.3991922880        1.7852084503        0.2890636066
 H         3.8100643678        0.5597158379       -0.7261978832
 H        -1.0378346515        3.5875495460        1.0894280400
 H        -0.6254941311        2.5410628181        2.4917537763
 H        -4.4711837355       -0.4063288326        2.1721260478
 H        -5.9660782289        0.4556967222        2.3491795276
 H        -3.0813475071        2.7385248065        4.1729337308
 H        -3.9528044780        1.1318134898        3.7346651938
 H        -4.8676223386        2.5588957525        3.8612671005
 H        -2.7343647825        4.4805659799        1.9672494468
 H        -3.9732293721        4.2194440718        0.7253393707
 H        -4.5564765326        4.4006620025        2.3678785845
 H        -6.5571650087       -0.0520700624        0.0786130932
 H        -4.8410532675       -0.4669827771       -0.3772328573
 H        -4.7167288993       -3.8093750825        2.9653432794
 H        -3.5120157850       -4.9459713384        2.4189045850
 H        -6.5982525157       -4.5605800211       -0.1296387544
 H        -6.0857961959       -4.8604510549        1.5485382408
 H        -5.2073747505       -5.4725960585        0.1681685868
 H        -5.4357853996       -3.1969489358       -1.8483472883
 H        -4.3080644450       -2.0839829916       -1.2656909501
 H        -3.7973575353       -3.7804362836       -1.6697374756
 H        -3.2191706639       -3.3691915304        4.5415154437
 H        -2.6486488858       -2.2357121136        3.2841252562
 H        -0.0753785992       -8.1578855502        5.1337776614
 H        -1.6354878364       -7.6974081619        5.0262815201
 H         0.5029953257       -5.3519228305        6.2542820446
 H         0.0107813464       -3.6397194882        6.2584717489
 H         1.0624923982       -4.2570586808        5.0314851950
 H        -3.1031142151       -5.4476852425        5.2641926860
 H        -1.8966476335       -5.8133708684        6.6102684186
 H        -2.3564963594       -4.0962071667        6.1125185530
 H         0.0326133144       -8.8799071026        2.7884287936
 H        -1.4631455859       -9.4307840756        3.2714770855
 H        -5.3661535764       -7.8341219955        0.5468773387
 H        -5.0083152334       -9.3009380561       -0.2668686191
 H        -4.3740463913       -8.9401665470        1.4535124432
 H        -0.6593408146       -7.9195512648       -1.4997715736
 H         0.2799358556       -7.5774386948       -0.0177902248
 H        -1.0216129100       -6.4103789518       -0.5889638702
 H        -0.5223221642      -10.0119752541        0.6326765642
 H        -2.1819347593      -10.4152675676        1.0072377143
 H        -1.5933065403      -10.0386988293       -0.5292406578
 Na       -1.1228592926       -1.5400526222        1.7072740324
