155

 C         5.2804880156        4.6958535730       -1.0879055217
 C         4.0171439872        5.1788526229       -0.3243575422
 C         3.9993265249        6.6995776765        0.0491532104
 C         2.7114284329        7.3484335851       -0.6961885074
 C         2.6502978955        8.5310665963       -1.5947288591
 C         3.8448404288        6.7412780519        1.5548130664
 C         5.3062036607        7.4476177019       -0.3237593283
 O         3.1148990066        4.4049455476       -0.1638826389
 O         1.6433243077        6.8330940725       -0.4802114002
 C         2.5082052579        8.1189854861       -3.0996203150
 C         3.3554704602        6.9673710097       -3.7049886377
 C         2.8870783718        6.3531071806       -5.0052101229
 C         1.9777786324        5.1135213566       -4.7356361589
 C         2.6951719250        3.9684765903       -3.9241236279
 O         4.4662587469        6.6431094572       -3.2791120459
 O         0.8114286390        5.0906441467       -4.9491497941
 C         2.0475134733        7.3243863510       -5.8004791308
 C         4.0227272475        5.8193068252       -5.9392811667
 C         2.1075192097        2.6678067794       -4.3927817056
 C         2.7365965279        1.2929600356       -4.0353222740
 C         2.0485892550        0.1072421652       -4.6857337582
 C         0.9086310197       -0.2858057556       -3.4910702241
 C         1.0477699601       -1.5700808578       -2.7462777846
 C         1.1711809738        0.2603329858       -5.9747234180
 C         3.1758354143       -1.0083171197       -4.7998026522
 O         3.7576360128        1.1653449601       -3.4038933857
 O        -0.0766398583        0.4720126672       -3.3895710354
 C         2.1830450700       -1.5730616266       -1.6479279286
 C         1.4749713593       -1.0461732646       -0.3505056678
 C         2.0793487369        0.1167141280        0.5813692236
 C         0.7632239171        0.7208916200        1.2229457233
 C         0.0055774944        1.9278865154        0.5425242776
 O         0.3850818899       -1.5539295109       -0.1260474764
 O         0.3892768079        0.2321159913        2.2633746050
 C         2.7655268664       -0.7191369329        1.7669947861
 C         2.9733010593        1.1116228781       -0.1253701859
 C        -1.0195310230        2.6233338077        1.4630319419
 C        -2.2133220221        1.6413821627        1.5448399579
 C        -3.6319943509        2.0850570849        1.9534834261
 C        -4.6270436113        1.3707715858        1.0971441904
 C        -5.0565533676        0.0326156004        1.6136423291
 C        -3.6690141297        1.7614387884        3.4988654236
 C        -3.8549442821        3.6040843930        1.7959145302
 O        -2.0490795711        0.4354196200        1.4374043615
 O        -5.0028775206        1.8419679301        0.0305126376
 C        -5.4464152631       -0.8624481918        0.3971807905
 C        -5.9144558185       -2.2491642899        0.8695530607
 C        -4.8706965405       -3.4998941390        0.1040240380
 C        -3.6617219834       -3.3242526582        1.0341747039
 C        -3.7399166240       -3.9036189516        2.4307142241
 O        -6.6833833993       -2.5534969918        1.7070406213
 O        -2.7184009144       -2.6089874650        0.6710133273
 C        -5.4628066766       -4.9775305004        0.0510427751
 C        -4.6399320694       -3.0523261490       -1.3761455831
 C        -2.8098390661       -3.2054204400        3.5265762266
 C        -1.4126660395       -3.8192917066        3.6136171566
 C        -1.0176552544       -4.8933697483        4.8386121957
 C        -0.3045811797       -6.2045225163        4.1543816368
 C        -1.0220171095       -7.6182498594        4.1592329770
 C         0.1950419134       -4.2257677317        5.4770816981
 C        -2.1819966660       -5.3381771263        5.7402895674
 O        -0.5711467017       -3.4044452772        2.8670119777
 O         0.7609515281       -6.0555735814        3.5571592456
 C        -0.9613200138       -8.3481293868        2.8420486327
 C        -1.9726194005       -7.6772700105        2.0205662496
 C        -1.9084382151       -8.1236776001        0.5259748572
 C        -3.3079421644       -8.0253437675       -0.2191613012
 C        -4.5181487919       -8.6737259716        0.3608327574
 O        -2.5261315175       -6.6266225703        2.4050488315
 O        -3.1988444406       -7.6188055234       -1.3789882557
 C        -0.8481677372       -7.1275456278       -0.0813359455
 C        -1.5757334752       -9.6353534493        0.2437696387
 H         5.3046287119        3.5481182414       -1.2151272899
 H         5.3850766604        5.1152256547       -2.1085061008
 H         6.1790797135        4.9526458014       -0.5388508918
 H         1.8257001932        9.1014830836       -1.3541506496
 H         3.5617226803        9.1361897086       -1.5314909732
 H         2.8642586677        6.3558759336        1.9235442917
 H         3.8599218693        7.7925446042        1.9113524468
 H         4.5844945079        6.2386882512        2.1327188635
 H         5.6190154809        7.2633313024       -1.3840311841
 H         5.1230419555        8.5340131295       -0.2725082488
 H         6.2179334817        7.1237839320        0.1967313480
 H         1.4369911816        7.8866256949       -3.1820123357
 H         2.6514944819        8.9787673173       -3.6946607604
 H         3.7570998430        4.1009005114       -4.0722908250
 H         2.6306237249        4.1121183071       -2.8115140756
 H         1.0785599275        7.5159572616       -5.3699592170
 H         1.9173530484        6.9367897316       -6.8656272128
 H         2.5204074087        8.2239915987       -5.9299893105
 H         4.5694433896        5.0368405936       -5.3437656526
 H         3.5308101438        5.3617193144       -6.7676530987
 H         4.7519003032        6.5469687586       -6.3094690220
 H         2.0960789432        2.7749349139       -5.4419679978
 H         1.0370661594        2.6231588524       -4.1533479777
 H         0.1248039732       -1.8565934784       -2.3785777884
 H         1.4419110424       -2.3610171414       -3.3524150361
 H         0.5428534139       -0.6185737695       -6.1448579582
 H         1.7921343512        0.2155671130       -6.8563376604
 H         0.5512325588        1.1385106007       -5.7632194916
 H         3.9044285687       -0.9842072741       -3.9823948308
 H         2.7665181859       -1.8825119685       -5.2877160486
 H         3.7734401178       -0.5090406601       -5.6639719797
 H         2.6129925754       -2.5503464936       -1.5670686437
 H         2.9801180641       -0.8705358244       -1.9141873858
 H         0.6890579391        2.7264679908        0.2367622015
 H        -0.3970417562        1.3670916210       -0.2910983032
 H         3.7599269554       -1.0410824703        1.4649264430
 H         2.0776101606       -1.4577860479        2.1908463544
 H         3.0336903675       -0.0208863713        2.5420471715
 H         2.6257480898        1.6421425997       -1.0054404913
 H         3.1984398178        1.9814174406        0.5622240236
 H         3.9341843726        0.7250060711       -0.3176777580
 H        -1.3528836629        3.5157144566        0.8644287694
 H        -0.5215733405        2.9595089424        2.3600391375
 H        -4.2237693252       -0.4649366775        2.1699109432
 H        -5.9134692117        0.1088833387        2.3811175307
 H        -3.0607216890        2.5426147458        4.0018539510
 H        -3.3557587535        0.7597966341        3.7064439154
 H        -4.6774829001        1.7757253556        3.9080250294
 H        -3.0792139473        4.2360331248        2.0636968500
 H        -4.0747771852        3.7855719822        0.7580481994
 H        -4.7948242637        3.8428227653        2.2875556919
 H        -6.2029643666       -0.3312370671       -0.1264660882
 H        -4.6160304702       -1.0443143154       -0.2246262290
 H        -4.7582661304       -3.8606888001        2.7343505013
 H        -3.4977684453       -5.0007813513        2.3975529883
 H        -6.1854182676       -5.2181975241       -0.7247152239
 H        -5.9098269137       -5.0434137448        1.0478248553
 H        -4.7260267346       -5.8430138056        0.0813203529
 H        -5.3920654194       -3.3553791808       -2.0944754081
 H        -4.3462278443       -2.0249423624       -1.4401182504
 H        -3.6973804791       -3.6630570842       -1.5576235461
 H        -3.3232385143       -3.3396769975        4.4819703417
 H        -2.7940723386       -2.1008905957        3.3334647255
 H        -0.6407280054       -8.2068620502        4.9857236511
 H        -2.0848869406       -7.4205777468        4.5025020752
 H         0.7511347360       -4.9683172862        6.0439510021
 H        -0.2669348345       -3.3808885029        6.0312576204
 H         0.7778634851       -3.7448288829        4.6646605790
 H        -2.9929405732       -5.6892952105        5.1565269949
 H        -1.8297431418       -6.1184653108        6.3715964021
 H        -2.5524808169       -4.4505625787        6.3157014702
 H         0.0005869927       -8.1556219324        2.3225075591
 H        -0.9798484735       -9.3940592884        2.8892179305
 H        -5.0306437284       -7.9624331556        1.0041922214
 H        -5.2751439765       -9.0269261964       -0.3048073704
 H        -4.1709811756       -9.4115374865        1.0257833752
 H        -0.8589989092       -7.4129187795       -1.1223545880
 H         0.1485024850       -7.4037595068        0.3796203893
 H        -1.0540783842       -6.0908432775       -0.0049624576
 H        -0.5380746394       -9.8875892722        0.4205603975
 H        -2.2028310432      -10.2610778083        0.9670039816
 H        -1.7435494194      -10.0395585826       -0.8113217064
 Na       -0.8530610685       -1.5164448538        1.6321037199
