155

 C         5.5978772580        5.0174664647       -0.2238065549
 C         4.1408188675        5.5175004469        0.0892504372
 C         3.9937998194        7.0544031570        0.4809239777
 C         2.8137968052        7.5489231372       -0.6034499868
 C         3.0934903927        8.6378913737       -1.5889574995
 C         3.3143113930        7.1100054648        1.8419531797
 C         5.2054558330        7.9345868356        0.3187825286
 O         3.1638371803        4.8148841258        0.0619390755
 O         1.7080917162        7.1304752283       -0.3938124351
 C         2.3846539549        8.2276131114       -2.9558851862
 C         3.2359459360        7.1376499914       -3.6568550387
 C         2.9520306454        6.4740569515       -5.1073168885
 C         1.9914341710        5.2976900434       -4.6870865027
 C         2.6475863136        3.9843930452       -4.0367058922
 O         4.2596371696        6.7699354005       -3.1283438258
 O         0.8145004969        5.4695669810       -4.6883535848
 C         2.2273712613        7.5111901535       -6.0452491426
 C         4.3413962797        5.9987944178       -5.6889125358
 C         1.9091132172        2.8064070042       -4.7534141427
 C         2.6251529985        1.5730806736       -4.2267540826
 C         2.0698176449        0.2067615989       -4.7138144863
 C         1.2394504889       -0.3998068991       -3.4887440158
 C         1.7289468133       -1.6367778775       -2.7135305582
 C         1.0895837094        0.1212500513       -5.8996707986
 C         3.4282663852       -0.6430069150       -5.0504070799
 O         3.3943611633        1.6681888029       -3.2484600685
 O         0.1864699297        0.1299083282       -3.3803607858
 C         2.5232592125       -1.1215368083       -1.5475158802
 C         1.6022253320       -0.7245642026       -0.3705642194
 C         2.0160029538        0.2428512409        0.7537660662
 C         0.8007375752        0.9386261189        1.4013304913
 C        -0.0302338381        1.9668897901        0.4431877280
 O         0.5596472940       -1.3645256008       -0.2725088483
 O         0.3457449879        0.5972669224        2.4555813689
 C         2.8608021179       -0.6234545597        1.8446657935
 C         2.9250787752        1.4129652544        0.3399380051
 C        -1.2868948386        2.4375549340        1.1035066417
 C        -2.2753812888        1.4007107198        1.3913538362
 C        -3.7386472776        1.7061233052        1.8988105654
 C        -4.7730595494        0.9480656378        0.9992850379
 C        -4.9587374998       -0.5981957232        1.0598690041
 C        -3.6309396901        0.9800694751        3.3431132024
 C        -4.0452495707        3.1645497836        2.2316700044
 O        -2.0442475101        0.1687568719        1.3099897812
 O        -5.5580810192        1.5688464734        0.3002859350
 C        -5.8224161250       -1.2354341686       -0.0122673667
 C        -5.9646618702       -2.7203226521        0.3187359939
 C        -4.7524700422       -3.7802793875       -0.1581579103
 C        -3.6993339517       -3.6142617415        0.8836746531
 C        -3.8947157137       -4.0597220457        2.3931413163
 O        -6.8455776035       -3.1119601580        1.0004181407
 O        -2.6894032694       -3.0786718906        0.5176867535
 C        -5.3547692620       -5.1945680796       -0.0252222476
 C        -4.3858983930       -3.4599580567       -1.6284037430
 C        -3.0111651198       -3.3274946269        3.3932579085
 C        -1.5349956120       -3.8825911441        3.5151536777
 C        -1.0305235580       -4.7343686765        4.7894037920
 C        -0.4109647925       -6.1149628837        4.3047093449
 C        -1.2781000866       -7.4348429124        4.1744161083
 C        -0.0542349446       -3.8726909995        5.6271094706
 C        -2.2995276458       -4.9843069405        5.7057384642
 O        -0.6032593601       -3.6136754142        2.7433719553
 O         0.7801755520       -6.0985129732        4.0556895583
 C        -0.7872930750       -8.0459287332        2.8720505316
 C        -1.9378157205       -7.6878709786        1.8313719745
 C        -1.8299754531       -8.0825500555        0.3093379025
 C        -3.2308572303       -8.3628789114       -0.4412099487
 C        -4.1816248069       -9.2036660720        0.3421095247
 O        -2.8983747168       -7.0803427716        2.2392154104
 O        -3.2994560608       -8.0974442008       -1.6071803516
 C        -1.2003578770       -6.6535504325       -0.1343221421
 C        -0.8270779734       -9.2953416861        0.0566261445
 H         5.8109143254        3.9427842197        0.0073942869
 H         5.7617902848        5.0870892039       -1.3095292107
 H         6.2836238696        5.7206782306        0.2025341193
 H         2.5082338690        9.5040909097       -1.1382711264
 H         4.1107703508        8.9122998644       -1.7374578689
 H         2.3431592121        6.6138803679        1.7557416387
 H         3.0843301075        8.0836505394        2.1308284460
 H         3.7648484403        6.4966397353        2.6459663164
 H         5.4402780494        8.0695525071       -0.6999769520
 H         5.0805196707        8.8075536670        0.8887755572
 H         6.0622799866        7.5254482754        0.8962374588
 H         1.3577127817        7.9476885665       -2.7072348042
 H         2.3061311169        9.1654148101       -3.6107652826
 H         3.7423327736        3.9852872649       -4.0549303783
 H         2.2831330216        3.8356559867       -3.0213850927
 H         1.1754870576        7.5757251150       -5.6109561953
 H         2.0740422606        7.1972497752       -7.0415676721
 H         2.6451067590        8.5487339948       -6.0101375817
 H         3.9881490017        5.9598749999       -6.7656492084
 H         5.2311605835        6.5703825360       -5.5648357897
 H         4.6546443605        4.9232037457       -5.3733197084
 H         2.0592032610        2.8421716027       -5.8967763881
 H         0.8358659056        2.8318813236       -4.4874180461
 H         0.8453593482       -2.1011449316       -2.2446816610
 H         2.2707691059       -2.3390289070       -3.2877241965
 H         0.5722024390       -0.8811835837       -5.9771447727
 H         1.7140010662        0.5386228157       -6.7094092008
 H         0.3216340217        0.8853136242       -5.6548814969
 H         3.9718156791       -0.6557071084       -4.0965936642
 H         3.2163594786       -1.7084006527       -5.2968797240
 H         3.9192070080       -0.0668906996       -5.8217851571
 H         3.2604385333       -1.8962988662       -1.1362640212
 H         3.2974076116       -0.3291560451       -1.7508890343
 H         0.6482972415        2.7623262622        0.1730197786
 H        -0.2634735407        1.3685779796       -0.4303106374
 H         3.7064342054       -1.0738640232        1.4056695109
 H         2.2549827612       -1.4759762067        2.0486162328
 H         3.1015251854       -0.0281271088        2.7355746679
 H         2.5877930596        1.9776073790       -0.5467099781
 H         2.9769026298        2.1127486405        1.1338939987
 H         3.9338732781        1.0515771928        0.0291244689
 H        -1.7266424154        3.2921218042        0.6149663851
 H        -0.9587113721        2.8784360833        2.1101229138
 H        -4.0131289650       -1.1770840171        0.9864491760
 H        -5.3834144539       -0.9164600557        2.0173490510
 H        -2.8532345037        1.2262560933        3.9845565757
 H        -3.5058226208       -0.0880435230        3.2180615860
 H        -4.5413153881        1.1658359228        3.8692616407
 H        -3.2451963648        3.6204513483        2.7549860849
 H        -4.2126217001        3.7419402551        1.3624223992
 H        -4.8810384771        3.3219752544        2.8967208512
 H        -6.9269375172       -0.7761073064       -0.0121418944
 H        -5.3735818088       -0.9724051409       -0.9956759608
 H        -4.9355597781       -4.0284866788        2.7841499643
 H        -3.5381008894       -5.0453438069        2.3732304729
 H        -6.0799425722       -5.4600138761       -0.8066130805
 H        -5.7678462315       -5.6769156589        0.8989627193
 H        -4.4942032930       -5.8330403158       -0.2902225602
 H        -4.7848797439       -2.4536508691       -1.8242735690
 H        -3.3245328752       -3.6053906645       -1.7151368830
 H        -4.7471518165       -4.2243114688       -2.3498358019
 H        -3.5571210111       -3.3336380316        4.3211278058
 H        -2.9298603331       -2.3259670286        3.1355786749
 H        -0.8566322945       -7.9779055778        5.0346244186
 H        -2.2944341680       -7.0883119232        4.1960706163
 H         0.3583754993       -4.5284882081        6.4437657496
 H        -0.5818362622       -3.0442606949        6.1708459905
 H         0.7757907602       -3.6511483708        4.9058730817
 H        -3.0833555316       -5.2570899805        5.0036162168
 H        -2.0996942395       -5.8209335721        6.3773792402
 H        -2.5092292925       -4.1513882761        6.2620099811
 H         0.1736645484       -7.5780314767        2.6348777113
 H        -0.6673630902       -9.1786590106        2.9698145902
 H        -3.7499771866       -9.4943440976        1.3456163785
 H        -5.0623052885       -8.7050749709        0.6319934461
 H        -4.5195131783      -10.0707369259       -0.1879840946
 H        -0.8718672936       -6.6156599325       -1.1513913537
 H        -0.4056743241       -6.4555808322        0.5104075449
 H        -1.9023669341       -5.8205183096        0.1063160681
 H         0.1897612067       -8.9618906843       -0.1596812198
 H        -0.6729498789      -10.0018206102        0.9264115752
 H        -1.3065499318       -9.8382362937       -0.8245917008
 Na       -0.7860612252       -1.7223601390        1.5922609142
