155

 C         4.8734642030        6.2479750938        2.2621440357
 C         3.4491741641        5.8251035396        2.1570547319
 C         2.4940246002        6.8774838027        1.6270525172
 C         2.8097415633        7.0134540455        0.0845082255
 C         2.6092939168        8.3855110785       -0.6423522706
 C         1.0727406637        6.2132991358        1.6591049468
 C         2.5390407808        8.1952139057        2.5737840132
 O         3.1125216141        4.6640882042        2.3774941194
 O         3.0453381499        6.0110237762       -0.5386811706
 C         2.3114420044        8.4213212781       -2.1508040075
 C         3.4967678557        7.8919016318       -3.1439190059
 C         3.2046835390        7.5090853301       -4.6402847799
 C         2.1899762206        6.2274426505       -4.5420736045
 C         2.6012135551        4.9960607489       -3.6514550759
 O         4.6425062914        7.9037192194       -2.7139494712
 O         1.0721113492        6.2003028220       -5.0792772381
 C         2.6624877416        8.6509613828       -5.5300215352
 C         4.5786432034        7.0472171699       -5.1980223301
 C         1.9062614675        3.7463621464       -4.1912652259
 C         1.8492099654        2.6023663193       -3.1711046662
 C         2.0745293453        1.0920246647       -3.6043934218
 C         1.3996764477       -0.0159952891       -2.6908326748
 C         2.2851311485       -1.0909272972       -1.9956937385
 C         1.3817066657        0.8056056262       -5.0092868961
 C         3.6104249208        0.9524080021       -3.7664285878
 O         1.5951906937        2.8605356751       -2.0466604485
 O         0.1721046276        0.0638608936       -2.5026578896
 C         2.6085518443       -0.8393795504       -0.5257427493
 C         1.3379058906       -0.4459532790        0.3412194011
 C         1.2422063502        0.7845274233        1.3664995168
 C        -0.2123329990        1.5656656499        1.4149805478
 C        -1.0534833703        1.6607413833        0.0347719236
 O         0.2743778022       -1.0694446200        0.2306246284
 O        -0.5857828230        2.1234641520        2.4074994542
 C         1.5497149185        0.2611790910        2.7788300651
 C         2.2248194076        1.8478690965        0.9411247691
 C        -2.4919852837        2.2119812878        0.3598112581
 C        -3.5392156826        1.2428572430        0.7696490023
 C        -4.9247233850        1.7009073573        0.4101916285
 C        -5.5001697327        0.7634665899       -0.8101321072
 C        -5.9131437662       -0.6610224615       -0.7672478064
 C        -5.8958103274        1.3586895059        1.6832054361
 C        -5.1172289643        3.1936723694        0.0980859186
 O        -3.3850704607        0.1950938304        1.4012776303
 O        -5.4231602075        1.2691595510       -1.8902095383
 C        -4.7733156318       -1.5938508126       -1.1608924868
 C        -5.1088645931       -2.9101771795       -0.5344514529
 C        -4.0312252595       -4.0720221795       -0.6710483613
 C        -3.1494123449       -3.7645268521        0.5474328792
 C        -3.1810987276       -4.7777616336        1.6704888977
 O        -6.0272655913       -3.1569010300        0.2446186516
 O        -2.6020843398       -2.6548266733        0.5325650025
 C        -4.5104500714       -5.5252411979       -0.7296455771
 C        -3.2809368768       -3.7672606546       -2.0766848380
 C        -2.7102761181       -4.1900655867        2.9686601591
 C        -1.1861081980       -3.9956436496        3.3172994520
 C        -0.5614749288       -5.0007700828        4.2387809579
 C        -0.2029383385       -6.4846353518        3.4530628922
 C        -1.2166837656       -7.6154066059        3.3588842055
 C         0.7476714956       -4.3746680329        4.7038432827
 C        -1.4628882158       -5.5169580252        5.3916527555
 O        -0.5702550932       -2.9818954791        2.9406893964
 O         0.8768029480       -6.6634331924        3.0155573807
 C        -0.7640178739       -8.8778415645        2.6197642081
 C        -0.9949298998       -8.8254881622        1.0379487756
 C        -0.1698292072       -9.7933393251        0.0604830649
 C        -1.2162837352      -10.4657999073       -0.8345706777
 C        -1.4689128296      -11.9325012208       -0.9105084924
 O        -1.6024825190       -7.9167775148        0.5465385521
 O        -1.9063734742       -9.7217514914       -1.5534178879
 C         0.7418841624       -8.7603931952       -0.6980225421
 C         0.7251205263      -10.7778921795        0.7384493457
 H         5.4279511169        5.5970746474        2.8825204878
 H         5.1398908977        6.0849758781        1.1675661437
 H         5.1544589359        7.3115749918        2.5066867277
 H         1.6485399038        8.7037417738       -0.1216307950
 H         3.3902339975        9.0943993479       -0.3220256964
 H         1.2399773583        5.1034826513        1.6007624661
 H         0.2877745528        6.4889875593        0.9136487590
 H         0.8318006178        6.3080617665        2.6979650345
 H         3.4232663554        8.8955456538        2.4771709068
 H         1.6856101648        8.9468283267        2.5225139670
 H         2.4342561683        7.8293828077        3.6246293615
 H         1.3638196296        7.9205602035       -2.4545327199
 H         2.0257693967        9.5104519455       -2.3758775092
 H         3.6973664852        4.9254283084       -3.5803570831
 H         2.2107495747        5.1453748326       -2.6638463266
 H         1.7468726042        9.1356164318       -5.1397188887
 H         2.3277517697        8.2740717999       -6.4444261209
 H         3.5240940096        9.4198234454       -5.7686984142
 H         5.3373576501        7.7056010733       -4.8757657817
 H         4.8446974508        6.1403905115       -4.6490739066
 H         4.7565034465        6.8421597929       -6.2858128171
 H         2.4854057576        3.3085828682       -5.0161665108
 H         0.8880927593        4.0939739881       -4.5208044606
 H         1.7212011066       -2.0645003293       -2.1107463165
 H         3.2169973856       -1.4919655905       -2.5591172598
 H         1.5596062402       -0.2328748473       -5.2926059940
 H         1.8143723565        1.5014567045       -5.6944285214
 H         0.3288965186        0.7384933825       -5.0448193247
 H         4.0752808547        1.0515290198       -2.8101614666
 H         4.0260091513        0.0423778949       -4.0162457307
 H         4.0300902215        1.7362686431       -4.3825340792
 H         3.1916929889       -1.7282912798       -0.0673005597
 H         3.3593653030       -0.0179185555       -0.5029535046
 H        -0.5920149611        2.4160162846       -0.6124633604
 H        -1.0678416530        0.7251879960       -0.5514240841
 H         2.6651611212        0.2144323980        2.9744123593
 H         1.2824873642       -0.7943340001        3.0342196685
 H         1.2180679595        0.9341087082        3.5612796917
 H         2.1409094875        2.0948685385       -0.1183376875
 H         2.0570592676        2.8063815771        1.5295246816
 H         3.2184218978        1.5224289874        1.2128974919
 H        -2.7154912301        2.8475363274       -0.4626892709
 H        -2.3002748754        2.9956828496        1.1112594551
 H        -6.2844265264       -0.9920469726        0.2129329306
 H        -6.7038966302       -0.7124443222       -1.4469042154
 H        -5.9148673271        2.2227504597        2.4322853006
 H        -5.4418489765        0.5337714620        2.2150909901
 H        -6.9531849466        1.2600957447        1.3786507917
 H        -4.7453907371        3.7898880927        0.9211009034
 H        -4.5714287267        3.3526878943       -0.8681519798
 H        -6.2172538037        3.3839861238       -0.0368439479
 H        -4.6970177033       -1.7540130084       -2.2256765034
 H        -3.7744840949       -1.0648973491       -0.9070852820
 H        -4.1935248917       -5.0347873359        1.8969323180
 H        -2.5390856047       -5.5658735275        1.3184629511
 H        -4.8708061779       -5.7774405533       -1.7375088861
 H        -5.3096041287       -5.6640232253       -0.0266253729
 H        -3.6338155895       -6.1909580558       -0.5403492965
 H        -2.6689749797       -2.8607181116       -2.0336743605
 H        -2.6020454126       -4.6078105818       -2.2856078936
 H        -3.9589597323       -3.7713841892       -2.9031836080
 H        -3.2069682098       -4.8281580365        3.6572543922
 H        -3.2581389186       -3.2840724004        3.0395027154
 H        -1.5530887627       -7.8899264321        4.3993637057
 H        -2.0570303576       -7.2956672430        2.6611972820
 H         1.1472577914       -4.9041615468        5.5329319978
 H         0.6104074625       -3.3623849360        5.0310450815
 H         1.5045198478       -4.2452503150        3.9930457010
 H        -1.8296722482       -6.5052428984        5.3246641803
 H        -0.9269726059       -5.5343451850        6.3212276836
 H        -2.3621482909       -4.8021473311        5.4866131428
 H         0.2940260198       -9.0385822630        2.8616849250
 H        -1.3343510265       -9.7969233343        3.0909449478
 H        -1.5476237368      -12.2460251567       -1.9327365807
 H        -0.7966584513      -12.5883878428       -0.3806617952
 H        -2.4585964313      -12.1342613870       -0.5677103584
 H         1.0283826519       -8.9450191462       -1.7282192574
 H         1.6155011607       -8.5624479221        0.0218455816
 H         0.1464580741       -7.8792884655       -0.6827709433
 H         1.5860086900      -10.3222287833        1.3774431957
 H         0.2133563524      -11.3603787894        1.5611017617
 H         1.2202555537      -11.4361494926        0.0138724642
 Na       -1.3740752011       -0.9625434468        1.5748133383
