155

 C         4.5006359221        6.3362019252        2.0683387429
 C         3.0404638943        5.9072553851        2.4155753966
 C         1.9046097064        6.9307067900        1.8953181647
 C         1.7339973131        7.0696725226        0.2730047593
 C         1.3903968103        8.4475833161       -0.3279432866
 C         0.4831075324        6.5366940343        2.5616980293
 C         2.1141178583        8.3432613241        2.6157378650
 O         2.7999770944        4.9411856906        3.1295150868
 O         1.9314815989        6.0084341279       -0.3253672586
 C         1.6545823086        8.4533350605       -1.9181530620
 C         3.1190827366        8.3486834033       -2.2770739611
 C         3.6098273415        7.5003430841       -3.4866688941
 C         2.6879250562        6.3383150252       -3.7668417253
 C         3.0335206009        4.9203407126       -3.1630675044
 O         3.8883250192        8.9444181766       -1.6083785310
 O         1.6235351365        6.5155666439       -4.3853667069
 C         3.5628835969        8.3746454606       -4.7547042259
 C         5.0904509404        7.0890569522       -3.1549410523
 C         2.0059910272        3.8262919326       -3.8039397003
 C         1.8676359612        2.5849644211       -2.9160601102
 C         1.8359308162        1.1526018643       -3.6354922186
 C         1.1638097861        0.2187401964       -2.5521606393
 C         1.9103836381       -0.6183744450       -1.4645531570
 C         0.8979799085        1.0582812545       -4.8732503076
 C         3.3488279916        0.8153315410       -3.9349641938
 O         1.8194742228        2.6423732810       -1.7434184274
 O        -0.0785776477        0.0636273075       -2.5302760598
 C         2.2350215337        0.1581380473       -0.0931819183
 C         1.0729627643        0.0900364989        1.0039308296
 C         0.7643522604        1.1946436969        1.8827162933
 C        -0.7249899005        1.6798645456        1.6087384237
 C        -1.1546100780        1.7334887319        0.1077642191
 O         0.4566851809       -0.9560351914        1.0210126693
 O        -1.4570499474        2.0542702416        2.5011730547
 C         0.9870363944        0.7305552548        3.3285377001
 C         1.6569220439        2.4637318250        1.5760986404
 C        -2.6642760601        2.1333280093       -0.2020889185
 C        -3.5881486685        1.0399944091        0.2588479798
 C        -5.1243792766        1.2125815226       -0.1472355219
 C        -5.2664049254        0.1250647392       -1.3227881989
 C        -5.1628334807       -1.3665366158       -1.0261428196
 C        -6.0497409869        0.8004004051        0.9871158375
 C        -5.4806117076        2.6071353370       -0.6843269384
 O        -3.3050643465        0.0001185981        0.8747176125
 O        -5.5079867338        0.5050945948       -2.4497648924
 C        -4.6187421150       -2.1192883372       -2.1248976202
 C        -4.5306761656       -3.6076176071       -1.8613320735
 C        -3.0743147353       -4.3236654175       -1.5179336131
 C        -2.6530445115       -3.8295815338       -0.0994552544
 C        -2.5520571940       -4.9278338316        1.0273527158
 O        -5.4086725091       -4.3607471552       -1.6492513057
 O        -2.3053357189       -2.6451108703        0.0198919701
 C        -3.1223291974       -5.8567015956       -1.6409692437
 C        -1.8589845544       -3.8734931477       -2.4485642204
 C        -2.6243496274       -4.4445129528        2.4616322309
 C        -1.2915393388       -4.0282438465        3.0692227270
 C        -0.4082166713       -5.0178703800        3.8027039279
 C         0.0136809495       -6.2299068894        2.8246929218
 C        -0.1905841759       -7.5916467207        3.3845023899
 C         0.8687512478       -4.4649807906        4.5165195971
 C        -1.2734978956       -5.6719623618        5.0021621276
 O        -0.8910272784       -2.8744242297        3.0701225317
 O         0.5288184256       -6.0421693342        1.7485840581
 C         0.0955708576       -8.7803239749        2.4255520501
 C        -0.5165896842       -8.7274786638        1.1140445246
 C         0.1045888873       -9.7361353208        0.0562249459
 C        -1.0579795347      -10.1596567176       -0.9441946455
 C        -2.3998330539      -10.6731134316       -0.3399382236
 O        -1.5220994686       -8.0985762548        0.8897551370
 O        -0.9340262267      -10.1037000894       -2.1248022005
 C         1.1359299052       -8.8473989605       -0.7637081463
 C         0.7439666806      -11.0671679267        0.7248905591
 H         4.7574311051        7.3062948242        2.3313929838
 H         5.2062096964        5.6691461353        2.6072467651
 H         4.7074272265        6.2391199107        1.0304226106
 H         0.3654169934        8.6859294839       -0.0970128105
 H         1.9646718176        9.2412424096        0.1773600933
 H         0.2979315781        5.4614711707        2.7291764386
 H        -0.2362103469        6.7711278576        1.8194715659
 H         0.1944206078        7.2254705598        3.3186349846
 H         2.9398689171        8.9913104127        2.3907798409
 H         1.3547249010        9.0512307626        2.3668643555
 H         2.0773630502        8.2090160218        3.6665452353
 H         1.0684789480        7.5303802560       -2.2634428084
 H         1.3561955506        9.4263546136       -2.2899492727
 H         4.0517715261        4.6446038024       -3.3355937224
 H         2.9655272068        4.9748927897       -2.1315766417
 H         2.5729959601        8.5486962625       -5.2735988396
 H         4.0969776871        7.7533341660       -5.4879938707
 H         4.0304141458        9.3438453149       -4.6140540876
 H         5.5530665606        7.8977080308       -2.7252608361
 H         5.1762655234        6.3482949927       -2.3661358179
 H         5.5436478756        6.6810922945       -4.0537619141
 H         2.3492740015        3.5151441360       -4.7964390439
 H         1.0688250034        4.3019959267       -4.0126398325
 H         1.1907057024       -1.4067099982       -1.0826964087
 H         2.8727456010       -1.0512076888       -1.9429239909
 H         1.0759750891        0.0903004693       -5.3936229309
 H         1.3061301489        1.7944331132       -5.5544768451
 H        -0.1701554015        1.1440610951       -4.8135518170
 H         4.0471722200        1.0204736182       -3.1030623644
 H         3.4566385190       -0.2398215252       -4.2101066410
 H         3.7241749156        1.3944549357       -4.8373243684
 H         3.1611212217       -0.3052180366        0.3662455834
 H         2.4548621516        1.1789178559       -0.4409543218
 H        -0.4114325750        2.3190054279       -0.4418326191
 H        -1.0358150161        0.6896808091       -0.1959333566
 H         1.7541090865       -0.0113405884        3.3875600095
 H         0.0841675768        0.2470364951        3.6752238643
 H         1.3244143273        1.4837783244        3.9764400339
 H         1.7241578004        2.7990540756        0.5611194665
 H         1.2498000409        3.3151737670        2.1548738516
 H         2.7074071551        2.3981184656        1.9053656496
 H        -2.7811549739        2.2611599187       -1.2920190496
 H        -2.8815816174        3.0673181562        0.2236000163
 H        -4.6056322094       -1.5996874679       -0.1141619383
 H        -6.0867129988       -1.7509152096       -0.8062216849
 H        -5.6638747375        1.2495880411        1.9026479886
 H        -6.0225983168       -0.2168917734        1.1345153893
 H        -7.0507071555        1.1093322703        0.8897604340
 H        -5.0545312483        3.3599838165       -0.0850565903
 H        -5.0536250475        2.7253705776       -1.6813179084
 H        -6.5767268687        2.7786531050       -0.7979202095
 H        -5.2449401840       -1.9960784372       -3.0370819253
 H        -3.5389477493       -1.7594569990       -2.3597035923
 H        -3.2963721267       -5.6626283657        0.7129544100
 H        -1.5802538234       -5.5301547818        0.9485589158
 H        -3.0514706530       -6.0378048919       -2.7180305516
 H        -4.0400314092       -6.2107027610       -1.2317087095
 H        -2.2215584827       -6.2257545960       -1.1411378483
 H        -1.5006909310       -2.8550201490       -2.2555992810
 H        -0.9224769985       -4.3712458094       -2.1468257743
 H        -2.1342090427       -3.9220626364       -3.5142712344
 H        -3.0924169846       -5.2928120558        3.0279345261
 H        -3.2940948185       -3.5391215584        2.5494119403
 H         0.3718613764       -7.7875031304        4.3005884849
 H        -1.2962193151       -7.5028559288        3.6766697304
 H         1.3875368572       -5.3517339725        4.8707192871
 H         0.5238380146       -3.6976450721        5.2360258098
 H         1.5162578403       -3.8421563074        3.8977630132
 H        -1.7219528673       -6.5454981143        4.6363310035
 H        -0.6198299566       -5.8077787653        5.8150054305
 H        -2.0185863233       -4.8517907270        5.2625821598
 H         1.1971198458       -8.9979386555        2.5076869474
 H        -0.2882074628       -9.5720387328        3.0461638827
 H        -2.8409901703       -9.9756252125        0.3887221483
 H        -3.1758278496      -10.7631975489       -1.1093103677
 H        -2.0976683326      -11.6001448880        0.1791787948
 H         1.6547511062       -9.4992165012       -1.4342811181
 H         1.6927093259       -8.2284407012       -0.0275130836
 H         0.6742616945       -8.2071665347       -1.4465565712
 H         1.6104493339      -10.7156046198        1.2648795399
 H         0.1094609564      -11.5187774970        1.4161785352
 H         1.0700282210      -11.5826358679       -0.0911417542
 Na       -1.4996969091       -1.2474058404        1.6809133388
