155

 C         4.3655560492        6.4858062541        2.1235832809
 C         2.9149182517        6.1346535607        2.4563892696
 C         1.7840824076        7.1667665644        2.0608759826
 C         1.5899003135        6.9861196593        0.4907441431
 C         1.2342371288        8.3535019772       -0.3200704444
 C         0.4538615450        6.6224636022        2.4934216948
 C         2.2655595016        8.5891538709        2.4220794238
 O         2.5435177154        5.0634642863        2.8796776741
 O         1.7634467965        5.9287420223       -0.0556150346
 C         1.5778646475        8.2392760688       -1.7626655426
 C         3.0697559486        8.2343856644       -2.0685260731
 C         3.6750328401        7.5109763362       -3.3356778620
 C         2.6221534516        6.2621142138       -3.7179257686
 C         2.9212209042        4.8663579949       -3.1465539640
 O         3.8255011411        8.9297116904       -1.3852816662
 O         1.5848452764        6.4585272143       -4.3060423554
 C         3.7809426214        8.5493762426       -4.4940398006
 C         5.0054261629        6.9420880110       -3.0264492562
 C         2.2629033509        3.7320612098       -3.8011067569
 C         1.8983617342        2.6565393970       -2.7865671023
 C         1.8190825197        1.1970655045       -3.4621268692
 C         1.2766979077        0.2136842114       -2.4016672188
 C         2.2173855273       -0.5642642141       -1.4755366002
 C         0.8522715862        1.2936623522       -4.7151603193
 C         3.2225152021        0.6882979008       -3.9339557386
 O         1.8769798590        2.9137607078       -1.5522891333
 O         0.1167820631        0.1227501367       -2.1943995647
 C         2.4064561730        0.1936055298       -0.1729036610
 C         1.2820899885        0.0501562606        0.7510852442
 C         0.8467969304        1.2195246131        1.7358279111
 C        -0.6981084058        1.6695701244        1.6048440605
 C        -1.2659681871        1.7950448484        0.1897095690
 O         0.4960560466       -0.9025354489        0.6993401240
 O        -1.2808272134        2.1377453408        2.5391504097
 C         0.9885272882        0.7263967815        3.2716576202
 C         1.6848989774        2.4958320455        1.6944057702
 C        -2.7584300161        2.1048936985        0.1602644552
 C        -3.7947928741        0.8874081143        0.2239276929
 C        -5.1786804347        1.0067494265       -0.3340951359
 C        -5.4077583977       -0.0670181693       -1.4863639854
 C        -5.2724125223       -1.5536304127       -1.1952726970
 C        -6.1929200863        0.6414314087        0.8718556250
 C        -5.5840361751        2.4183244031       -0.7764214401
 O        -3.4718669129       -0.0878189392        0.8938147256
 O        -5.5726195607        0.4091224532       -2.5801239834
 C        -4.5319118432       -2.2978431752       -2.4567997468
 C        -4.2684491398       -3.8107051682       -1.9693760119
 C        -2.7730992520       -4.3334329872       -1.6778464802
 C        -2.5259625053       -3.8466838009       -0.2477040797
 C        -2.3853600189       -4.8747184033        0.9979018038
 O        -5.1907679756       -4.6344145395       -1.7943535303
 O        -2.4939672488       -2.6408037696       -0.1056417994
 C        -2.8049437480       -5.8601075774       -1.7233076855
 C        -1.8368258689       -3.7778581562       -2.7322668655
 C        -2.4988906716       -4.1261347534        2.3985673600
 C        -1.1938381551       -3.9475212913        3.0890558887
 C        -0.5210594836       -5.0729344579        3.9302823825
 C        -0.0647894437       -6.1858480456        2.9649942905
 C         0.0970284747       -7.6188755577        3.4777861392
 C         0.8635908049       -4.5236058067        4.4765382674
 C        -1.5536856920       -5.5139741025        5.0005244724
 O        -0.7161579641       -2.8283352542        3.1711645490
 O         0.4539704069       -5.8714338157        1.9309421964
 C         0.5132057021       -8.6636684142        2.2829587617
 C        -0.5701731089       -8.8053837257        1.2292032773
 C        -0.0828131222       -9.6643953421       -0.0566905114
 C        -1.2023135004      -10.1081746554       -1.1412000316
 C        -2.4558620983      -10.6650100118       -0.5656777761
 O        -1.5867673958       -8.0646874352        1.2567881000
 O        -0.8030963927      -10.3934986881       -2.2292249401
 C         0.9803759976       -8.6850793466       -0.7388015780
 C         0.5947224984      -11.0071756365        0.4398397920
 H         4.8714886900        6.9209622297        3.0357399285
 H         5.0080070208        5.7072137153        1.7345483638
 H         4.3178266122        7.3678804024        1.4565214485
 H         0.0991151470        8.5274556078       -0.2184194491
 H         1.6967357633        9.2556260073        0.1048719038
 H         0.4636125541        5.6681891292        1.9913104734
 H        -0.5072860795        7.0681163956        2.1260096525
 H         0.4700010423        6.4523682794        3.6125499013
 H         3.0780916576        9.0389036014        1.8230780008
 H         1.5564081817        9.4296172144        2.3587347253
 H         2.7450383119        8.6131484279        3.4509011553
 H         1.2101094140        7.2788229377       -1.9758917145
 H         1.1511219151        9.0754575895       -2.3549032931
 H         4.0223788439        4.6312188154       -3.1260456388
 H         2.7205580835        4.8739620991       -1.9980208763
 H         2.9054365582        9.1176667094       -4.4311576080
 H         3.7142774013        8.1934536825       -5.4995494742
 H         4.6888063790        9.2545865478       -4.3508740983
 H         5.8201315887        7.7480174101       -2.9054556128
 H         4.9244746563        6.4097980880       -2.0614793586
 H         5.2254186225        6.1687515509       -3.7238434577
 H         2.9296183532        3.3376568215       -4.5860401291
 H         1.3054547614        4.0264764232       -4.3183214572
 H         1.7681324450       -1.5208734613       -1.1675407562
 H         3.1726689991       -0.7252171625       -1.9025701976
 H         0.7537748670        0.3727257606       -5.2173751389
 H         0.9330489309        2.2177707857       -5.3038380422
 H        -0.1639005728        1.1449456877       -4.3012498378
 H         3.9416950315        0.6022838605       -3.1490247770
 H         3.1715184982       -0.3463685311       -4.2814000280
 H         3.5917368558        1.3297934196       -4.6880773597
 H         3.2854827468       -0.2572712666        0.2679488424
 H         2.5738355985        1.2650269879       -0.4009341089
 H        -0.6864726119        2.5953418970       -0.2872970222
 H        -1.0692256814        0.8663384476       -0.3646277650
 H         2.0069633566        0.7419941447        3.6684280751
 H         0.6806775762       -0.3147756807        3.2866042947
 H         0.3914059043        1.4069428945        3.9437948183
 H         1.6678260310        2.9413324855        0.6806456820
 H         1.5276725259        3.2509883084        2.4323694382
 H         2.7481614564        2.2472432674        1.7800866302
 H        -2.8823834536        2.7895665953       -0.6821395340
 H        -2.9067779147        2.7669523591        1.0966372780
 H        -4.6595405059       -1.7738097812       -0.3082788494
 H        -6.2777829119       -2.0575611564       -0.9121578288
 H        -6.4888286088        1.4692141728        1.4635399689
 H        -5.6819685289       -0.1030255953        1.5367846258
 H        -7.1345568990        0.2168726026        0.4943001432
 H        -5.0207126273        3.1902675858       -0.1622287351
 H        -5.1888101325        2.5572024557       -1.7853094534
 H        -6.6210141388        2.7021741154       -0.6892594735
 H        -5.0570756624       -2.4255704336       -3.4049715139
 H        -3.6305385217       -1.7891486353       -2.5682587056
 H        -3.1440895327       -5.6161268608        0.7707446270
 H        -1.4899533691       -5.3885833003        0.8239392241
 H        -3.0723609415       -6.2575571376       -2.6728534384
 H        -3.5991330849       -6.0471214890       -1.0026535671
 H        -1.7887059084       -6.2171089504       -1.4754905453
 H        -2.0856089222       -2.7915241638       -3.1048974882
 H        -0.8395157972       -3.5909314042       -2.2932149264
 H        -1.6506845149       -4.4872293886       -3.5899713357
 H        -3.1592462627       -4.6520999634        3.0431040149
 H        -2.9535529841       -3.2018502169        2.2267740353
 H         0.9221531199       -7.5937457786        4.2236937534
 H        -0.7695252717       -7.8784501677        3.9859837695
 H         1.1674824780       -5.1634731765        5.2477843795
 H         0.6452140187       -3.5652153557        4.7884184114
 H         1.6031241193       -4.3859205877        3.7158960301
 H        -2.2366715266       -6.3219287013        4.6562530251
 H        -0.8711640229       -5.8313878690        5.8349686468
 H        -2.0302276455       -4.6224963543        5.2657212641
 H         1.5051907535       -8.3995069933        1.9646288627
 H         0.6104315061       -9.5945359701        2.8590722316
 H        -2.9049120015      -10.0424977233        0.1339228311
 H        -3.1622602323      -10.7769791932       -1.3606183376
 H        -2.1262459535      -11.5629769744       -0.1030143827
 H         0.9495092520       -8.8765736141       -1.8141021191
 H         1.8671473706       -8.8166391301       -0.2151526127
 H         0.7433186377       -7.5930164986       -0.7341353495
 H         1.5308549747      -10.7640956507        0.9803527405
 H        -0.1937202470      -11.4401130806        1.1419427749
 H         0.8339916547      -11.6030425445       -0.5134641026
 Na       -1.7052895323       -1.3606825277        1.5722294486
