155

 C         4.0042511359        6.8089327820        2.2737642305
 C         2.6115405044        6.6886434463        2.8346183877
 C         1.5256229782        7.6725515336        2.2137861632
 C         1.2141451029        7.4223635438        0.6943066974
 C         0.6776626848        8.4414568680       -0.1908092063
 C         0.2465937291        7.3789445464        3.0205928526
 C         2.1049916914        9.1281681379        2.3313767087
 O         2.3248890670        5.8017945877        3.6129027365
 O         1.1448957865        6.2854707055        0.3006906835
 C         1.2873036395        8.2402397822       -1.5520429154
 C         2.7939947729        7.8801166472       -1.4265648778
 C         3.5960627533        7.6619363290       -2.8003999414
 C         3.1464134808        6.3280840912       -3.5557301232
 C         2.8335272432        5.1552326706       -2.6759692467
 O         3.4135295407        7.8635040331       -0.4101827804
 O         3.0221198184        6.3996763903       -4.7787338225
 C         3.3653446549        8.8843283891       -3.7858782203
 C         5.1247475769        7.5689144502       -2.5663826117
 C         2.6832597858        3.8719801246       -3.6294070294
 C         2.1431884073        2.7484013283       -2.7416695175
 C         1.7711588484        1.3333231294       -3.4268615486
 C         1.3893990186        0.1147852706       -2.4750898744
 C         2.4912385877       -0.2139059291       -1.3440457273
 C         0.5411164155        1.6337507972       -4.3467291054
 C         2.9562316552        0.8865190626       -4.3256372365
 O         1.7825224434        2.9607741459       -1.6423139192
 O         0.3102098110       -0.4351621737       -2.5639818591
 C         2.3144702897        0.4960407937       -0.0265364972
 C         1.1086596138        0.1917949469        0.8169109086
 C         0.5101524294        1.2361480814        1.8221259555
 C        -0.9922263187        1.2544672540        1.5652445029
 C        -1.5356211938        1.4135552010        0.0731577883
 O         0.6213943919       -0.9138336806        0.7947668645
 O        -1.7937128431        1.0297646283        2.4540753391
 C         0.9689949406        0.7400257326        3.3476159065
 C         1.0253421681        2.6683337947        1.7297097467
 C        -2.9656717559        1.7138706209        0.0474142463
 C        -3.9220967975        0.5893294258        0.2751892937
 C        -5.3076668450        0.5150610278       -0.3482990528
 C        -4.9804285842       -0.4999518756       -1.6607688459
 C        -4.9080886363       -1.9934024287       -1.5081462432
 C        -6.3596341384       -0.3044962853        0.5196874970
 C        -5.8353081193        1.8579898925       -0.7266552252
 O        -3.5393209240       -0.3500822875        0.9763315739
 O        -4.8034569015        0.0601919396       -2.6977437692
 C        -4.1772739981       -2.7659612903       -2.7274963910
 C        -3.7811589707       -4.1712573323       -2.3253218591
 C        -2.0847320759       -4.4901364967       -1.9994340941
 C        -2.0601884929       -3.9801043799       -0.6162838989
 C        -2.6308638965       -4.8093730604        0.5007628720
 O        -4.4757713290       -5.1054785136       -2.2325102260
 O        -1.7110768171       -2.8051106282       -0.4111343814
 C        -1.9134184575       -5.9978524450       -2.1453102194
 C        -1.2135299847       -3.7261107061       -3.0118710045
 C        -2.6008986611       -4.1484016858        1.8714183883
 C        -1.2938958906       -3.9564872010        2.6812927684
 C        -0.6744098593       -4.9243482308        3.7375459986
 C         0.1733744038       -6.1005707926        2.9378175965
 C         0.3768766721       -7.5066219969        3.4196436003
 C         0.2855249946       -4.1752508838        4.6487838078
 C        -1.8061166585       -5.6301153084        4.5209294428
 O        -0.9397610109       -2.7816428843        2.8515775379
 O         0.8312855202       -5.7398679700        1.9898209388
 C         0.6137674529       -8.6044421601        2.2605261986
 C        -0.6226106230       -8.9486257697        1.3009526619
 C        -0.1131324967       -9.4265713632       -0.2316771760
 C        -1.2599359735       -9.7759228184       -1.1376680503
 C        -2.4948592292      -10.4449867157       -0.4734545960
 O        -1.7335177055       -8.7988375539        1.6605778323
 O        -1.2798140884       -9.3493201615       -2.2881740686
 C         0.8688156867       -8.4152627507       -0.7207682311
 C         0.6096715205      -10.7105985354        0.0594619410
 H         3.9990143105        6.7822379389        1.2197914285
 H         4.6482125419        7.6525658211        2.6338423346
 H         4.4569339007        5.9240998527        2.5883705998
 H        -0.4337530486        8.3428574390       -0.2492208261
 H         1.0323479730        9.3787456726        0.1437609076
 H         0.2200915225        6.2896505464        3.1838507339
 H        -0.6182641855        7.7017377084        2.5180568274
 H         0.3036200863        7.7271752398        4.0902248184
 H         2.9952879066        9.2322438196        1.6955076108
 H         1.4139427480        9.8397818207        2.0310323162
 H         2.3300883961        9.4190590095        3.3724026043
 H         0.7520616968        7.5119595130       -2.1916652390
 H         1.1560224986        9.1190869248       -2.2133850893
 H         3.5514217498        5.0956703619       -1.9234558544
 H         1.9000058126        5.3583465177       -2.2365387394
 H         2.2771385541        9.2038123098       -3.7502498962
 H         3.7878977451        8.7237998079       -4.7802806579
 H         3.8862888338        9.7468548927       -3.3579365913
 H         5.4141318052        8.5973092985       -2.4803783616
 H         5.3583549551        7.0758867592       -1.5946599673
 H         5.6225394986        7.1689310935       -3.3960475280
 H         3.5942861040        3.6430647368       -4.1250408242
 H         1.9239074159        4.2127445065       -4.3189715232
 H         2.5686689211       -1.3709057988       -1.2368034635
 H         3.5233726497       -0.1126976462       -1.7588428868
 H         0.5294329634        0.9206576816       -5.1996273226
 H         0.5208036380        2.5891204749       -4.8398238282
 H        -0.3899429323        1.6044996422       -3.7514396749
 H         3.8609457826        0.9232991404       -3.6768335596
 H         2.6634204237       -0.0680007257       -4.8700737328
 H         3.0992698007        1.6256104725       -5.1168101687
 H         3.1740936642        0.1113304103        0.5760734151
 H         2.4267385180        1.6509890824       -0.1685438910
 H        -1.0065753990        2.2738844387       -0.3225103074
 H        -1.2734449395        0.5511773739       -0.5742156795
 H         2.0436592518        0.8119400987        3.3373470171
 H         0.6441014922       -0.2953929330        3.5025897369
 H         0.4364740435        1.2904340113        4.1185563627
 H         1.0324347835        3.0198694801        0.7078280853
 H         0.4660152119        3.4478701370        2.2158361904
 H         2.0852563172        2.6274695817        2.0783450192
 H        -3.1369773663        2.2862022468       -0.8198876815
 H        -3.1972923017        2.4908222261        0.7694064835
 H        -4.3366410383       -2.2352625280       -0.5809741443
 H        -5.9417956938       -2.1858542038       -1.4749287814
 H        -7.0297791292        0.3178190914        1.1343860029
 H        -5.8843317252       -0.9608107697        1.2454933632
 H        -6.9615406610       -0.9771419634       -0.1168841291
 H        -5.7206676985        2.5589271595        0.0708410954
 H        -5.2877795977        2.2961672297       -1.5315883386
 H        -6.8693917318        1.8729402807       -1.0888742812
 H        -4.8004230330       -2.8524193112       -3.6354481497
 H        -3.3164731953       -2.0742331934       -2.9995519420
 H        -3.7043450431       -4.8975188365        0.1234607567
 H        -2.1864253729       -5.7913384309        0.4547813539
 H        -2.0741959045       -6.2441742860       -3.1653963021
 H        -2.5571048806       -6.5905297528       -1.5023113473
 H        -0.8196193578       -6.1265569875       -1.8191989039
 H        -1.4881917150       -2.6607559051       -3.1296543771
 H        -0.1696012236       -3.8234067814       -2.6746062944
 H        -1.1667119945       -4.1363359347       -4.0876119676
 H        -3.3566592934       -4.7266867684        2.4893573530
 H        -2.9566253541       -3.0766863659        1.8076750263
 H         1.4630153623       -7.4330186265        3.8100069444
 H        -0.3313814244       -7.7619796988        4.2165313132
 H         0.7826716780       -4.9394052757        5.3135304287
 H        -0.3224391719       -3.4987391775        5.3319313425
 H         1.1086521302       -3.7670199655        4.0222892613
 H        -2.2517844463       -6.4939610297        4.0107050029
 H        -1.4045145467       -5.9151259003        5.4800556226
 H        -2.6719765966       -4.9452505815        4.8135638214
 H         1.5340896320       -8.4042906081        1.6461526225
 H         0.8841762115       -9.4814264645        2.8327423380
 H        -3.0641208533       -9.6297771786       -0.0115315694
 H        -3.1307173441      -11.0586875998       -1.1798890568
 H        -2.2224492446      -11.1542671236        0.3871486900
 H         0.9786532214       -8.4553561600       -1.8077179004
 H         1.8842342906       -8.6415978724       -0.4923840269
 H         0.5873626822       -7.4729320123       -0.2683637457
 H         1.2558933247      -10.5185793034        0.8787925479
 H        -0.1608163732      -11.3412314381        0.4156669376
 H         1.0858360904      -11.1516459343       -0.7420378361
 Na       -1.5217436308       -1.3618362554        1.4072211329
