155

 C         3.5374602641        6.4003214896        2.5185275179
 C         2.1691889091        6.7609748238        3.1926286253
 C         1.2007255300        7.9304632546        2.4618692046
 C         0.8937715866        7.3849647237        1.0101687447
 C         0.6921047782        8.4743354742       -0.1385225820
 C        -0.0378718402        8.1752287400        3.3124896038
 C         2.0072897278        9.2501599352        2.4675966036
 O         1.6438825841        6.1293696820        4.0777278265
 O         0.7387879671        6.2075046991        0.7487354326
 C         1.2915017020        7.9202041543       -1.3450061763
 C         2.8606565860        7.8896862813       -1.3332486709
 C         3.5408291031        7.8120968893       -2.6476062188
 C         3.2220368600        6.4702064348       -3.3480953365
 C         2.9176868259        5.3064257137       -2.4549644899
 O         3.5193724068        8.0213110391       -0.3191579782
 O         3.4865256677        6.3410959691       -4.5345702175
 C         3.0610489371        8.9305579156       -3.6305650947
 C         5.0671926181        7.8244807070       -2.5532615474
 C         3.0669303341        3.9666731778       -3.1847821895
 C         1.9784524264        3.0416686696       -2.8491212764
 C         1.8667346005        1.6717514968       -3.5277418439
 C         1.5500995354        0.5804737412       -2.4235794491
 C         2.7207658112        0.3503783925       -1.3379230371
 C         0.5709375550        1.8087862081       -4.3532928406
 C         3.0935087395        1.2381654964       -4.3992429707
 O         1.1979449230        3.3411321010       -1.9176308114
 O         0.5707747738       -0.0559506253       -2.3724582544
 C         2.4359548767        1.2273649936       -0.1191006530
 C         1.2922155624        0.6104420645        0.7251193316
 C         0.3979550707        1.5711023607        1.6610292646
 C        -1.1971271447        1.3248666256        1.4459007484
 C        -1.7340764527        1.5821694705        0.0550213463
 O         0.8682457465       -0.5749199852        0.6158183423
 O        -1.9342487618        1.0017034876        2.3733000573
 C         0.6054453061        0.9844380182        3.2144166821
 C         0.6885007015        3.0389154158        1.5219819010
 C        -3.2404189543        1.6287624030        0.1483168446
 C        -3.9030294000        0.2107753495        0.1224612579
 C        -5.2669023341        0.0799783148       -0.5415301805
 C        -4.9015939249       -0.6192261133       -1.9711478567
 C        -4.7697316399       -2.1826108497       -2.0824066334
 C        -6.1357738803       -0.8918710139        0.2587832869
 C        -6.0099830555        1.3919814373       -0.7432865617
 O        -3.3255118677       -0.7911198387        0.5051685806
 O        -4.5985060731        0.0919914425       -2.9118931507
 C        -3.6798786029       -2.6570687816       -3.0601130174
 C        -3.3432444059       -4.1696504210       -2.6385400297
 C        -1.8450901256       -4.5892967891       -2.2932816771
 C        -1.7466208196       -4.1350090606       -0.7973828309
 C        -1.9648153429       -5.2188269134        0.2498887471
 O        -4.1388083718       -5.0374116205       -2.5238974513
 O        -1.6058938186       -2.9587353602       -0.5083295933
 C        -1.6825525311       -6.1425308699       -2.7073471733
 C        -0.8488482265       -3.7329003430       -3.2142375822
 C        -2.4066176066       -4.7293975462        1.6575982958
 C        -1.3294417354       -4.4464655882        2.7826854678
 C        -0.9785582434       -5.4507951037        3.9186721173
 C        -0.0384064180       -6.5423411415        3.1859355084
 C         0.3090410584       -8.0036934546        3.5604124660
 C        -0.0900005965       -4.8313799009        4.9863276399
 C        -2.2685857958       -5.9888864200        4.7165957344
 O        -1.0678721948       -3.2662815689        3.0929958240
 O         0.2675643453       -6.1997358723        2.0843806508
 C         0.6776345842       -8.7702185051        2.3427259343
 C        -0.2579562859       -8.6349306308        1.1646563124
 C         0.1003596048       -9.4741505673       -0.1830155618
 C        -1.3396314474       -9.5998965977       -0.8959400018
 C        -2.0348010408      -10.9188955632       -0.8599541244
 O        -1.2523418530       -7.9780053331        1.3658653790
 O        -1.9191625557       -8.6881882420       -1.4443453821
 C         0.9654701256       -8.6230669978       -1.0624457928
 C         0.6680675505      -10.8802767346        0.1669370160
 H         4.1806494704        6.1569861533        3.3291580317
 H         3.3447958603        5.5924514788        1.8698619313
 H         4.0494247647        7.1609160216        1.9791549119
 H        -0.3879270138        8.7561557025       -0.3631606402
 H         1.1991364805        9.4439019682        0.1615535292
 H        -0.3541983990        7.2637465210        3.6946257863
 H        -0.9028444059        8.6439488192        2.7846430404
 H         0.1263818620        8.9817554565        3.9966096892
 H         2.7739130803        9.2539144334        1.7022616661
 H         1.2617481010       10.0245751887        2.2001733792
 H         2.3926420790        9.4292883741        3.4643959971
 H         0.8174704846        6.9527743609       -1.5109026596
 H         1.0138723497        8.4363982802       -2.2638723182
 H         3.6641622999        5.4224337295       -1.6457300210
 H         1.9422162076        5.3133978676       -1.9133974973
 H         2.0345940743        9.1182673349       -3.6327090214
 H         3.2617895830        8.5010846988       -4.6139421972
 H         3.5635799369        9.9543522131       -3.3740866841
 H         5.4360148535        8.8675772914       -2.3138338326
 H         5.4347399289        7.1903668479       -1.8036815972
 H         5.3666323167        7.4572059172       -3.4931225752
 H         4.0210590706        3.5484181918       -2.9013402332
 H         3.1414935889        3.9977520143       -4.2593185311
 H         2.5726192113       -0.6794898420       -1.0728933619
 H         3.6715096879        0.4258611807       -1.8477552282
 H         0.5738489510        1.0310439791       -5.0583549618
 H         0.6236494661        2.6461559239       -5.0410382992
 H        -0.2821767107        2.0268198183       -3.7222460707
 H         4.0269089221        1.0867761556       -3.8415551291
 H         2.7228579876        0.2899627121       -4.8175908538
 H         3.1069519188        1.9999785421       -5.1900578575
 H         3.4430472331        1.3527940830        0.4084880143
 H         2.1206431006        2.2514256908       -0.2965963773
 H        -1.2479974410        2.4651009703       -0.4084259570
 H        -1.2492532940        0.7010854691       -0.3895622034
 H         1.4829332026        0.3659561537        3.1674908132
 H        -0.2451382391        0.4173060334        3.4278546722
 H         0.8290719405        1.7975926180        3.8822846946
 H         0.3847047575        3.4199488293        0.5049507838
 H         0.1927480484        3.6423802818        2.2919960533
 H         1.7582551516        3.2174679492        1.5784583439
 H        -3.6299621487        2.1410000702       -0.7694066138
 H        -3.4158108306        2.3406394052        0.9772804671
 H        -4.5788524612       -2.6749192560       -1.0834661573
 H        -5.7786633347       -2.6336936497       -2.5231200036
 H        -6.6108512072       -0.3980279632        1.0559977260
 H        -5.6573861945       -1.8683960911        0.5069534061
 H        -6.9738311116       -1.1009741425       -0.3832876192
 H        -5.8547931618        2.0710046728        0.1211829194
 H        -5.5512601569        1.9037363550       -1.5708585803
 H        -7.0377394339        1.3404740433       -0.9118726053
 H        -4.0373767616       -2.7332012867       -4.0828061899
 H        -2.8825248505       -1.9923802798       -3.1157403951
 H        -2.6704601644       -5.8533454730       -0.1947120848
 H        -1.0086050119       -5.7148261946        0.4664147546
 H        -1.5547070636       -6.2807485275       -3.7767438371
 H        -2.4795319723       -6.7226795152       -2.2131132261
 H        -0.8311695752       -6.4721107647       -2.1174268656
 H        -0.0418831111       -3.2168919975       -2.7714838568
 H        -0.2220503017       -4.4404287468       -3.7152019600
 H        -1.4880035135       -3.1459583471       -3.8600192982
 H        -3.0052286233       -5.5153314013        2.0764893300
 H        -2.9911378547       -3.8186013163        1.5241275232
 H         1.1521591209       -8.0554753627        4.2493350642
 H        -0.6351055249       -8.3457538739        3.9796084020
 H         0.2441695923       -5.5895891743        5.7193583798
 H        -0.5204139606       -3.9104071849        5.3204227917
 H         0.7378162219       -4.3471062681        4.4010726975
 H        -2.2956842111       -7.1003888327        4.8102277788
 H        -2.3407590950       -5.6891915312        5.8027256143
 H        -3.2097132409       -5.7539642881        4.3443102251
 H         1.6508235205       -8.5213614124        1.9957090058
 H         0.6757161216       -9.8761303885        2.4743006058
 H        -1.8972357607      -11.4815419627        0.0444048272
 H        -3.1088929362      -10.8967646234       -1.1935887029
 H        -1.6281947398      -11.4786238687       -1.7253008000
 H         1.0525110568       -7.6981057689       -0.4939772930
 H         0.6244882311       -8.4156761675       -2.0463438394
 H         2.0233884141       -8.9191878440       -1.2525836187
 H         1.6164926921      -10.8862521874        0.6025605873
 H         0.0167273802      -11.4487370268        0.8074389272
 H         0.9078691056      -11.4413978607       -0.7078319038
 Na       -1.2977110329       -1.4701049812        1.5528457523
