155

 C         3.2074700242        6.2563355321        2.5368410671
 C         1.9324567320        6.7624454515        3.2097930876
 C         1.2068548344        8.0561722716        2.6489365558
 C         0.9121907495        7.6001548879        1.1654630824
 C         0.5943405831        8.5785125348       -0.0250804780
 C        -0.2600201417        8.2918059156        3.3259851202
 C         2.1777605131        9.2891900733        2.6110924641
 O         1.3896331032        6.2146432156        4.1566224509
 O         0.7464856030        6.3899068095        1.0036867833
 C         1.2813836174        8.0141861207       -1.3307910779
 C         2.7728722529        8.0514940732       -1.2304564340
 C         3.5663061947        8.0275933791       -2.5832280845
 C         3.3800873801        6.4540976224       -3.2235385863
 C         3.3096217302        5.1973764519       -2.3169122971
 O         3.3905329972        8.1039010018       -0.1685754305
 O         3.3219420444        6.2893458586       -4.3938827711
 C         3.0828227748        9.0163712336       -3.6698793420
 C         5.1484899451        8.2916451602       -2.4489247295
 C         3.1370516815        3.9087326300       -3.1095385341
 C         1.9167239939        3.0017487498       -2.8888805642
 C         1.8127668677        1.5343995467       -3.6479591030
 C         1.6431980939        0.7284600303       -2.3202413693
 C         2.8140308934        0.5719076655       -1.3231764712
 C         0.5755071530        1.5007772933       -4.5705199048
 C         3.0587667884        1.2860945719       -4.5061143319
 O         1.0021419542        3.3322342598       -2.1943155919
 O         0.5612859847        0.1677411322       -2.0652569935
 C         2.4207717652        1.2866263442        0.0307030016
 C         1.0688269837        0.6573339364        0.7018892649
 C         0.3515209891        1.5462749717        1.6570379173
 C        -1.2002825409        1.3193140917        1.4996730703
 C        -1.7995275843        1.5625765743        0.0076514149
 O         0.7376393633       -0.4728296291        0.5446047116
 O        -1.8722964712        1.0284690287        2.4539864699
 C         0.8176309394        1.2043378004        3.0882262997
 C         0.5184931330        3.1649637283        1.5251145589
 C        -3.3295124194        1.6033633053        0.0271728892
 C        -3.8951366439        0.1772088617        0.0423619108
 C        -5.2684614735        0.0420358176       -0.7032933197
 C        -4.9772327602       -0.6197334819       -2.1269123441
 C        -4.8586567937       -2.1068638309       -2.2108930443
 C        -6.0926601532       -1.0733100575        0.2300145578
 C        -6.0833815672        1.2546687652       -0.9384027723
 O        -3.3296574683       -0.8184592258        0.5214635310
 O        -4.7566587944        0.1045550301       -3.0676626608
 C        -3.5341969968       -2.5296727370       -2.8931475802
 C        -3.2320789675       -4.1153244591       -2.7373160669
 C        -1.7099758857       -4.5061254066       -2.4425071414
 C        -1.6427286747       -4.0864849311       -0.8502159067
 C        -1.7787766210       -5.2198205551        0.2126902977
 O        -4.1223015411       -4.9680405647       -2.7751656026
 O        -1.3845548523       -2.9400325186       -0.5267765626
 C        -1.3763489784       -5.9770517174       -2.6469407921
 C        -0.7166817681       -3.5853009130       -3.2286648583
 C        -2.4065875901       -4.8474071518        1.6144081760
 C        -1.4863750293       -4.4948279538        2.7987860237
 C        -1.1419235958       -5.5634589968        3.9249186319
 C        -0.0571240471       -6.4845542537        3.1086573151
 C        -0.0167863026       -7.9222226557        3.5364972010
 C        -0.2407444160       -4.9935147450        5.0699487444
 C        -2.2692224827       -6.4516755198        4.5425048643
 O        -0.9434118137       -3.4405369637        2.9702224347
 O         0.6969377924       -6.0662378278        2.2357957011
 C         0.5158939493       -8.9382437544        2.4200760230
 C        -0.2046090213       -8.8636565605        1.1324341053
 C         0.1306348386       -9.7102845991       -0.1426392501
 C        -1.3641700053       -9.8566382865       -0.7582162271
 C        -2.0139036452      -11.1932690928       -0.9207080663
 O        -1.2010487192       -8.1579326806        1.2411591704
 O        -1.9410622698       -8.8661033848       -1.1587915843
 C         0.8665924489       -8.6954135077       -1.0486069456
 C         0.9514647443      -11.0268644069        0.0934082012
 H         3.2484649760        5.1450649505        2.5573473910
 H         3.2156951897        6.6978381273        1.5290555768
 H         4.1032585935        6.5792717167        3.1550896117
 H        -0.4270823454        8.5833613027       -0.2708105329
 H         0.8101865881        9.5996542731        0.1773868801
 H        -0.7659766344        7.3263341634        3.6037114134
 H        -0.9223179133        8.7133759025        2.6004688272
 H        -0.3050481998        9.0995166896        4.0283457628
 H         3.0946500510        8.9736155789        2.0495901662
 H         1.6559260228       10.1479814740        2.0943419076
 H         2.4712655720        9.5772992361        3.6463281873
 H         0.9357729514        6.9783897220       -1.5030936269
 H         1.0302839494        8.5419509769       -2.2539676535
 H         4.2239449665        5.1859381409       -1.6612691834
 H         2.4883451989        5.1724551801       -1.5532198047
 H         2.0058079938        9.0402669867       -3.9495773174
 H         3.6094515136        8.8266679969       -4.5896672116
 H         3.4296830414        9.9088153085       -3.2657839561
 H         5.2058754200        9.3096184721       -2.2270512525
 H         5.5869371968        7.7072137134       -1.6013109998
 H         5.7233454592        8.0024692238       -3.3888292195
 H         3.9918925363        3.2189969168       -2.8684341224
 H         3.3609103762        4.1357032776       -4.2057735531
 H         2.8866321919       -0.5111961930       -1.2511734042
 H         3.6280259041        1.0187376375       -1.8985253984
 H         0.7557660892        0.6190069882       -5.2667983047
 H         0.4315355205        2.4042201124       -5.2097090626
 H        -0.3481611282        1.3482100908       -3.9692787165
 H         3.9207674453        1.5120170070       -3.9283011479
 H         3.1230036443        0.2460878209       -4.6260792486
 H         2.9524333931        1.9330172976       -5.3575257805
 H         3.2487058545        1.2224896561        0.6767268294
 H         2.3697087019        2.3520165702       -0.1090675018
 H        -1.4222132975        2.5512657735       -0.2463815443
 H        -1.4031361629        0.8493883184       -0.7521142639
 H         1.5543741755        0.4269743293        3.1243459914
 H        -0.1063106486        0.9304408999        3.6026499118
 H         1.3126385236        2.0961926485        3.3664257263
 H         0.5881249990        3.4722524808        0.5066947302
 H        -0.3527492518        3.6070966334        2.0212679056
 H         1.3932641110        3.6098514108        2.0073585526
 H        -3.6824114743        2.2398489830       -0.7908253689
 H        -3.7158703908        2.0688077182        0.9759963801
 H        -4.9154733558       -2.5912370829       -1.2615674405
 H        -5.6470203269       -2.4579120896       -2.7534790997
 H        -6.9178883253       -0.4839289217        0.6389823165
 H        -5.4716763048       -1.3374180396        1.0315113654
 H        -6.6231729430       -1.8655146146       -0.2651946896
 H        -6.3381168621        1.8052013418       -0.0705270755
 H        -5.5906134576        1.9165555123       -1.6682630685
 H        -7.0733690078        0.9207582806       -1.3471731017
 H        -3.5848677587       -2.3517796979       -3.9959391483
 H        -2.6471241974       -1.9312179752       -2.4819109248
 H        -2.2866166991       -6.0873290547       -0.2828257278
 H        -0.7495534728       -5.4094364084        0.4877596722
 H        -1.4158336844       -6.1132838395       -3.7652426159
 H        -2.0765647787       -6.6340512881       -2.1727207190
 H        -0.3721130481       -6.2316335287       -2.3242430164
 H        -0.0428941967       -3.2279821643       -2.4078839760
 H         0.0091867920       -4.1323737900       -3.8754534752
 H        -1.1594682917       -2.7958797896       -3.7699923318
 H        -2.9936687201       -5.7006135855        1.9289719039
 H        -3.0474579379       -4.0067585926        1.4594673229
 H         0.6678948813       -8.0103577480        4.3750008252
 H        -1.0291640224       -8.1906987891        3.8767337994
 H        -0.3730299369       -5.6638037278        5.8755576554
 H        -0.4486787741       -3.9750867959        5.3369121347
 H         0.7279759874       -4.9439812811        4.7161415695
 H        -2.0021232824       -7.1642521510        5.2896031060
 H        -2.9027537165       -5.8909089492        5.1926396037
 H        -3.0022383475       -6.9321221098        3.8341728749
 H         1.6156780421       -8.9198621110        2.1739527115
 H         0.3013648180       -9.9282113234        2.7999899944
 H        -1.9481407436      -11.8006158296       -0.0177145327
 H        -3.0138479912      -11.0525463732       -1.1585246639
 H        -1.6186406543      -11.7621418723       -1.7144660585
 H         1.4703758630       -7.9813723569       -0.5124691249
 H         0.1398910363       -8.3394795700       -1.8173243550
 H         1.5787259779       -9.1197935464       -1.6956250859
 H         2.0304157757      -10.8213164028        0.4337853295
 H         0.5126044219      -11.7276115643        0.8722420832
 H         1.1869863009      -11.7170854580       -0.7841193476
 Na       -1.1479333302       -1.5065857677        1.3769402896
