155

 C         2.9257595206        6.0717367351        3.1723387019
 C         1.5486962624        6.7983870816        3.4444957433
 C         1.0789800197        8.1021160839        2.7361786935
 C         0.8112623791        7.7484487572        1.1798871961
 C         0.5279482234        8.9731976389        0.1697239534
 C        -0.2940906367        8.4891036337        3.3403847798
 C         2.2360712188        9.1343394589        2.6586002873
 O         0.9837114501        6.4748286955        4.4499446926
 O         0.6283709021        6.5948465041        0.8146252363
 C         0.9928356451        8.4172161071       -1.2172622194
 C         2.5262557081        8.1042465891       -1.1386806463
 C         3.2955066541        7.8807152145       -2.4972248520
 C         3.1175293707        6.4921175127       -3.1054802001
 C         3.3836815171        5.2854815150       -2.2564840367
 O         3.1331914024        7.9515359083       -0.0656104151
 O         3.2431696643        6.4106551698       -4.3114459070
 C         3.0868774742        9.0596866364       -3.4314441304
 C         4.8382330036        7.9282510397       -2.2482308653
 C         3.5067465674        3.9719048948       -3.0132568947
 C         2.0696240022        3.3012687655       -3.0275047734
 C         1.8860391959        1.7872927660       -3.4599383009
 C         1.6023861934        0.8757590551       -2.2011945405
 C         2.6937727316        0.4402671026       -1.1520030871
 C         0.7242718844        1.8583771076       -4.5069808342
 C         3.1525882625        1.2565518974       -4.2125297447
 O         1.1281786575        4.0546869721       -2.8173079596
 O         0.4816290696        0.3871675587       -2.0990102006
 C         2.3800213391        1.3282062497        0.1347743122
 C         1.0455768069        0.7836353368        0.8257358283
 C         0.2309317933        1.7686032611        1.7148086592
 C        -1.1796062302        1.3078291961        1.3783258304
 C        -1.8089310187        1.6553795369       -0.0390340836
 O         0.8427526119       -0.3724235350        0.6713867708
 O        -1.7382015616        0.5703367641        2.1685430551
 C         0.5361997006        1.5614005572        3.2791786060
 C         0.4648561896        3.3499961052        1.3660764409
 C        -3.3475048638        1.4206477405       -0.1477827032
 C        -3.9368328266       -0.0070458854       -0.0777075629
 C        -5.4544293832       -0.1650107790       -0.7156340853
 C        -5.1267124531       -0.7038887462       -2.1323813232
 C        -4.7067419075       -2.2227985466       -2.3254816140
 C        -6.2225372845       -1.0968820750        0.2143733094
 C        -6.1149532539        1.2313382319       -0.8644957447
 O        -3.5003336483       -1.0704600070        0.3489109630
 O        -5.0564105571        0.0056846763       -3.1614039968
 C        -3.1612971613       -2.4335126960       -2.4388942815
 C        -2.7926719314       -3.9468549012       -2.7852570231
 C        -1.3286821641       -4.4308949739       -2.4514552346
 C        -1.1228329458       -4.1691133084       -0.9265583765
 C        -1.3425827095       -5.3128008587        0.0975815281
 O        -3.6550644656       -4.6653546009       -3.2011487936
 O        -1.0934286110       -3.0085624422       -0.5729600849
 C        -1.1233908097       -5.8944720901       -2.8468023351
 C        -0.1519301631       -3.5872709624       -3.2611004397
 C        -2.1293914666       -4.7611262996        1.3056576575
 C        -1.3052745966       -4.5659613919        2.4725560521
 C        -1.1138245287       -5.7327174336        3.5287889666
 C         0.0820710554       -6.6477647829        3.1929028427
 C         0.0291200988       -8.0329780516        3.6546483541
 C        -0.7950755913       -5.1200781918        4.9126433077
 C        -2.4181900058       -6.4638677042        3.7982883023
 O        -0.8748607810       -3.4487607632        2.6875178368
 O         0.9961559391       -6.2583299847        2.4834367597
 C         0.4941139563       -9.0666306809        2.5037622797
 C        -0.3714805720       -9.0298829906        1.2639805008
 C         0.0020185811       -9.7579931482       -0.0661611209
 C        -1.3560102863      -10.3458717392       -0.7882440585
 C        -1.6435832306      -11.8957821329       -0.9497432123
 O        -1.2087993344       -8.1369366598        1.2899244915
 O        -2.0193553121       -9.5947547485       -1.4294603358
 C         0.7772848337       -8.9070418597       -1.0443585424
 C         0.7558412162      -10.9632401110        0.3396730956
 H         3.5844122264        6.5722151622        2.5157937912
 H         3.3370220485        6.0022751722        4.1228681999
 H         2.7337601804        5.0205815285        2.8432572923
 H        -0.4832444076        9.2764167388        0.2786405963
 H         1.1056973899        9.8939208796        0.3641816473
 H        -1.1319851170        8.0367703471        2.7232865945
 H        -0.5608190538        9.5395005429        3.3280742759
 H        -0.4435897969        8.0349532582        4.3130153839
 H         2.8752111828        8.6118915989        1.9594460619
 H         1.8900963820       10.1987918763        2.4165147178
 H         2.7427509946        9.1247173025        3.6195899552
 H         0.4765584547        7.4799578801       -1.5156216591
 H         0.9850224720        9.1241670430       -2.0435662589
 H         4.1570141944        5.3025287212       -1.4070521491
 H         2.4664470011        5.1504697777       -1.5746118218
 H         2.1348731984        9.0097753648       -3.8048248437
 H         3.7800420739        8.9778178908       -4.2538454050
 H         3.3806379089       10.0034748870       -2.9542973576
 H         5.2183001120        8.8605408453       -1.9045124109
 H         5.0503140606        7.0955944047       -1.6191917598
 H         5.3304980651        7.7021667943       -3.2333069383
 H         4.3364984350        3.3644386407       -2.6560255798
 H         3.8824617966        4.1400510016       -4.0346155857
 H         2.5055800359       -0.5619131087       -0.9576942949
 H         3.5802155206        0.6914160731       -1.6392850718
 H         0.0014899483        1.0494921448       -4.5143054319
 H         1.1848832766        2.2411605130       -5.3771694663
 H         0.0597030042        2.6027330528       -4.1501015995
 H         3.9864440071        1.2480062520       -3.5232445132
 H         2.9853428159        0.2593321120       -4.5189876635
 H         3.3447673673        2.0358009183       -4.9761854307
 H         3.1231258109        1.0881705864        0.8587093372
 H         2.5374252970        2.3665103071        0.0127019121
 H        -1.5608807041        2.6826148855       -0.3537081632
 H        -1.2362892893        0.9487843057       -0.6826067070
 H        -0.1427317969        0.9503932375        3.8160991303
 H         0.4728876460        2.5470396949        3.6614446805
 H         1.5196446377        1.2132307063        3.2420614405
 H         0.3977967669        3.5241369996        0.2862617258
 H        -0.3617317450        3.8723995030        1.9061998059
 H         1.3789152643        3.8126398089        1.7565554944
 H        -3.5868167526        1.8659845946       -1.1490709921
 H        -3.8135852512        2.0090122991        0.7201800918
 H        -5.0189293393       -2.9250334527       -1.5763376155
 H        -5.1800928479       -2.6074153854       -3.2011240002
 H        -5.6690863325       -1.1760285313        1.1138672233
 H        -6.0404218225       -2.0398587754       -0.1965730777
 H        -7.2450125609       -0.8608534260        0.3051819286
 H        -6.1169973643        1.7677830230        0.0385570113
 H        -5.7243783568        1.8178111663       -1.6892607249
 H        -7.1690304019        1.0598233518       -1.1163519931
 H        -2.8765512098       -1.8300909401       -3.3124118127
 H        -2.6584729122       -2.1424578412       -1.5007578418
 H        -1.8890121729       -6.1679883931       -0.3127154314
 H        -0.3357943975       -5.5702265303        0.3324683080
 H        -0.8194932346       -5.9079186147       -3.9428056303
 H        -2.0139353318       -6.5388187986       -2.8891721283
 H        -0.2736463956       -6.2977539890       -2.3548005198
 H        -0.4004701102       -2.5091301459       -3.2813374417
 H         0.8388274231       -3.8044430584       -2.8266797274
 H         0.0201947383       -3.9174371034       -4.2110139122
 H        -2.9706051292       -5.3681494600        1.4533098292
 H        -2.4714360399       -3.8225087320        1.0269219369
 H         0.6565829864       -8.1416392334        4.4644827174
 H        -0.9153181278       -8.2499504294        4.1459569632
 H        -0.1435651688       -5.7742456062        5.4823746520
 H        -1.6635230138       -5.0833680486        5.5551893553
 H        -0.2726351882       -4.1796879593        4.7541758775
 H        -2.3697442420       -7.3683664002        4.3796533642
 H        -3.1501609911       -5.8691043374        4.3607375926
 H        -3.0253430002       -6.8620047651        2.9957826274
 H         1.5001931303       -8.7218836642        2.1317962595
 H         0.5617294577      -10.0388001108        2.9330362977
 H        -1.9790915867      -12.3942084722       -0.0137893212
 H        -2.4713205683      -12.0493803124       -1.6041936305
 H        -0.7904358443      -12.4294927810       -1.2259731828
 H         1.6494345790       -9.4040616375       -1.3866295819
 H         1.0091828934       -7.8521714489       -0.6583464984
 H         0.2229030575       -8.6937532721       -1.9331363230
 H         1.6599348052      -10.7858768507        0.9162595313
 H         0.2369174587      -11.5558136882        1.0722873637
 H         0.8957336584      -11.7710346596       -0.4213495099
 Na       -1.3118290569       -1.3293824096        1.4858770729
