155

 C         0.5974098001        6.1366762186        5.3138280702
 C        -0.4291924873        6.3056332736        4.1343877911
 C        -0.4371822421        7.5046530639        3.0591412014
 C         0.2169475087        6.8908594916        1.7446623737
 C         0.1745527194        7.6888450793        0.5008440627
 C        -1.9141010312        7.8778217087        2.8226910922
 C         0.4213064614        8.7424436828        3.4968528070
 O        -1.3018358770        5.4860919813        3.9613035124
 O         0.8839332605        5.8895637931        1.8771738431
 C         1.2878311949        7.5811747910       -0.5955423406
 C         2.2563542919        8.7084513237       -0.3059314274
 C         3.4076588546        9.0171091376       -1.4048831503
 C         3.6322933954        7.6236678108       -2.0686434350
 C         4.8656389682        6.8054952458       -1.6920669380
 O         2.3272878958        9.1849406291        0.8182836653
 O         2.8166855350        7.2799766016       -2.9357733673
 C         2.9868942177       10.0102223437       -2.5393094287
 C         4.7335050627        9.5590863467       -0.7685724531
 C         4.8375760685        5.3773035903       -2.2691950102
 C         3.6182592234        4.5715196709       -1.5950141878
 C         2.9879621021        3.3572775710       -2.3641966029
 C         1.7725622600        2.7057330071       -1.4739116276
 C         2.1035470016        2.3648833694       -0.0300686817
 C         2.5105717333        3.8867592463       -3.7423943595
 C         4.1726561353        2.3530777454       -2.6425228505
 O         3.1653945105        4.9298520667       -0.4874820350
 O         0.7581539096        2.4614711729       -2.0539750077
 C         1.0059759168        2.8794402507        0.9107302909
 C        -0.0837193386        1.8388388398        1.0425861634
 C        -1.6424289792        2.2233109225        1.5390304397
 C        -2.6619228260        1.2265811348        0.9468436349
 C        -3.2348141403        1.3954193363       -0.5084144064
 O         0.0842741034        0.6252632418        0.8885222817
 O        -3.0557173646        0.3950521859        1.6966171530
 C        -1.6618352789        2.1453105876        3.0860068204
 C        -2.1003916127        3.7043448132        1.1750940786
 C        -4.4913431914        0.6390529727       -0.8108409821
 C        -4.2778459287       -0.9279360689       -0.8051169869
 C        -5.3879975310       -1.8376995890       -1.5282854218
 C        -4.6332567991       -2.3338708510       -2.8804127983
 C        -3.2338870028       -2.8766355154       -2.5871892216
 C        -5.7662203110       -3.1253293395       -0.7094232899
 C        -6.6717824183       -1.0975583961       -1.8981033970
 O        -3.3791917027       -1.5259468086       -0.1815600023
 O        -5.1884199294       -2.2386185175       -3.9651227975
 C        -2.5015679719       -3.0705717031       -3.9894391226
 C        -1.1532697543       -3.8283154354       -3.6434538250
 C         0.1170912479       -3.0500852411       -3.1566311064
 C         0.0915638156       -2.8312599730       -1.5743084278
 C         0.2325183886       -3.9922428864       -0.6515926510
 O        -1.0412133217       -5.0159003256       -3.7168409074
 O        -0.3126025875       -1.6972059265       -1.1746603765
 C         1.2850866404       -3.9538795569       -3.4242025697
 C         0.1920341852       -1.6232040560       -3.8357089658
 C        -1.0893865802       -4.4682109539        0.0108258466
 C        -0.9378871446       -4.4347402184        1.4905466567
 C        -0.9926294641       -5.7864538172        2.2813315242
 C         0.0084846690       -6.8873526708        1.6388333843
 C        -0.1341002738       -8.2181781943        2.3278395413
 C        -0.7228536611       -5.5977100364        3.8290764329
 C        -2.4204908503       -6.2995036457        2.0565996222
 O        -0.9155588285       -3.3195323726        2.0583967007
 O         0.7671310878       -6.6281696241        0.7215407196
 C         0.7357264928       -9.4553019675        1.8234852415
 C        -0.2171656217      -10.3407382239        0.9887369778
 C         0.3960745964      -11.7121154515        0.4343910374
 C        -0.7492303298      -12.4706885509       -0.2844989990
 C        -1.8000078792      -13.1881891130        0.4629260375
 O        -1.2522833654       -9.9062150625        0.5637762912
 O        -0.9824913124      -12.5672397623       -1.5039956601
 C         1.5942120872      -11.4708067943       -0.4386404133
 C         0.8487106086      -12.5669993122        1.6694919302
 H         0.3788581315        6.8775373733        6.0226911462
 H         0.6440910600        5.1640000398        5.7525326211
 H         1.6167559615        6.4067721064        5.0250584331
 H        -0.8689062354        7.7205565463        0.0489836563
 H         0.2869373390        8.7045467921        0.9284310452
 H        -2.2722399860        7.8170418850        1.7766778542
 H        -2.1749244457        8.8224055374        3.1877013761
 H        -2.4711851757        7.0713512064        3.3273187960
 H         1.3960073175        8.5523111050        3.8792694311
 H         0.5860625263        9.4937597906        2.6783712020
 H         0.0240818219        9.3300443858        4.3297617214
 H         1.6430152203        6.5155334325       -0.4518243165
 H         0.8617661712        7.6916461548       -1.5622372543
 H         5.8090630156        7.1280629032       -2.0492739670
 H         4.9449074122        6.7087278584       -0.6318298190
 H         2.2791955122        9.4347203174       -3.2920589227
 H         3.7772250308       10.5320885705       -3.0325854304
 H         2.4796012951       10.8638357406       -2.0348405648
 H         4.5486007075       10.5326306231       -0.3881660403
 H         5.2047851996        8.9502631303        0.0039727522
 H         5.4826251422        9.6732932680       -1.5975647153
 H         5.8477419046        4.9158040327       -2.1013667126
 H         4.6785514324        5.4166540022       -3.3569783157
 H         2.3512252504        1.2915330511        0.0065444760
 H         3.0705263226        2.7550600773        0.3137413431
 H         1.7504351043        3.2252560508       -4.1218249089
 H         3.3129904866        3.9878496925       -4.4229519611
 H         2.3173982834        4.9200789010       -3.6668924952
 H         4.6203417013        2.0543813951       -1.7116079527
 H         3.8413666092        1.4495972469       -3.1483077295
 H         4.9003333431        2.7617211512       -3.3258637120
 H         1.4791730917        3.0207190733        1.8893315012
 H         0.5397399093        3.8597585679        0.5843997150
 H        -3.2830289624        2.4241596511       -0.8410130595
 H        -2.4251519287        1.0507252768       -1.1730400838
 H        -2.6603308592        1.9588574998        3.5244355538
 H        -1.5327972606        3.1502646347        3.4426243574
 H        -1.0286120371        1.4311586213        3.5674899881
 H        -2.5303919729        3.7832518197        0.2001979342
 H        -2.9075655201        3.9578579655        1.8918871905
 H        -1.2774709411        4.4312438119        1.1973416991
 H        -4.8505471772        0.9800369637       -1.7967258466
 H        -5.2299022341        0.7886270500       -0.0543070373
 H        -2.5646671002       -2.3049997182       -2.0049195028
 H        -3.3560402387       -3.8483858330       -2.2190038495
 H        -5.9375556484       -4.0248589516       -1.2407590953
 H        -6.6542662096       -2.9729478423       -0.0933942550
 H        -5.0831828112       -3.3323840528        0.0465321076
 H        -7.0339076135       -0.6586262453       -0.9931833066
 H        -6.5785436495       -0.3177188421       -2.6503603950
 H        -7.4658299475       -1.8167166522       -2.2230194531
 H        -3.2007787943       -3.4630014264       -4.7950474631
 H        -2.2463955778       -2.0589572485       -4.3538512125
 H         0.6600289634       -4.8375430450       -1.1880583850
 H         1.0116916375       -3.7813164054        0.1099322865
 H         1.1842406842       -4.2219999995       -4.5114561391
 H         1.3137498686       -4.9244692884       -2.9553747014
 H         2.2533057634       -3.4852239477       -3.2891178610
 H        -0.6475256572       -1.1344743645       -3.4211801068
 H         1.0654168578       -1.0551802494       -3.4895949663
 H        -0.0157348458       -1.6141412005       -4.8576772920
 H        -1.3953052904       -5.4655161696       -0.4231104198
 H        -1.9157952964       -3.6906332270       -0.2444505823
 H         0.0739549111       -7.9917707124        3.3788640512
 H        -1.1730423137       -8.5132495691        2.3353775606
 H        -1.4138884101       -6.0897447413        4.5322640743
 H        -0.8532627266       -4.5148619185        4.0685257725
 H         0.3444422767       -5.8737468782        4.0401141799
 H        -2.6345098922       -6.9208094089        2.9809484667
 H        -3.0553832327       -5.3752193663        1.9174423217
 H        -2.4424986881       -7.0398544876        1.2905227119
 H         1.3964042540       -9.0218209217        1.0346041013
 H         1.3623953671      -10.0829194765        2.5196916182
 H        -1.8744314862      -12.9940445491        1.5151411078
 H        -2.7448621913      -12.9313731475        0.0038982124
 H        -1.5143218699      -14.1975093153        0.3207611817
 H         2.1619047391      -10.6948410125       -0.0278342883
 H         1.2904538199      -11.1458032008       -1.4437135785
 H         2.0320898348      -12.4102337607       -0.5968065888
 H         1.8778426380      -12.2862949773        1.9376555677
 H         0.2020980252      -12.4088991360        2.5364376933
 H         0.5874532873      -13.6488522611        1.4587000913
 Na       -1.3159277910       -1.2249550231        0.9771549945
