155

 C        -0.8026441877        6.0647395413        5.5477225849
 C        -1.6204906009        6.0492591173        4.2072923655
 C        -2.0610316511        7.5357890569        3.6849970810
 C        -1.3554984855        7.8712197049        2.2150524816
 C        -0.0339077921        8.6973741745        2.2280039614
 C        -3.6029428006        7.3620558988        3.4178002106
 C        -1.8056808106        8.6338526926        4.7659447387
 O        -2.0092266727        5.0637183437        3.6065425982
 O        -1.8627761594        7.5423970789        1.1580217882
 C         0.7153471967        8.5727013186        0.9341583169
 C         2.0559385723        9.3329497208        1.0663605925
 C         3.1209284198        9.2677347717       -0.0804145465
 C         3.6172477232        7.7473920939       -0.3693862648
 C         4.8384873849        7.1595012346        0.4600814749
 O         2.3278397812       10.0058314694        2.0299460357
 O         3.0347222667        7.1720813299       -1.2350646439
 C         2.4126863512        9.8719462201       -1.3155646126
 C         4.2624055093       10.1513919103        0.3835244304
 C         4.9030317376        5.6548107939        0.2004652227
 C         3.4672601910        4.9510532728        0.3801337026
 C         2.9155805041        3.7987045902       -0.6738568056
 C         1.4986874260        3.2401551069       -0.4151978614
 C         1.1333585660        3.0172564980        1.1474932235
 C         3.2443376911        4.0958029786       -2.2035432236
 C         3.9172307676        2.6760666034       -0.3662006286
 O         2.8767528303        5.1011494695        1.4310655449
 O         0.7712942664        3.1986467687       -1.3661402676
 C        -0.3954992024        3.0297978431        1.4257424836
 C        -1.0696584411        1.6878084126        1.0798703537
 C        -2.6482035448        1.6451572904        1.1214841618
 C        -2.9815098267        0.4495805124        0.1829595468
 C        -3.3015711808        0.7141772046       -1.2906643710
 O        -0.3768297045        0.6681304896        0.9063562436
 O        -2.8412992054       -0.7139552123        0.5906143358
 C        -2.9084999026        1.2477939244        2.5669834934
 C        -3.3581432084        2.9541790605        0.6903045306
 C        -4.3211291944       -0.2757738786       -1.8542342498
 C        -3.6964256046       -1.6613855533       -2.2170686858
 C        -4.5536289447       -2.6608567585       -3.1575725537
 C        -3.9779669337       -2.1161002621       -4.5516644269
 C        -3.2217292676       -3.0705377680       -5.5152402023
 C        -4.3988308462       -4.1848487306       -2.9166011868
 C        -6.0903944792       -2.1696919121       -3.2561520461
 O        -2.4974174366       -1.9190766153       -2.0354660434
 O        -4.1592906104       -0.9599818736       -4.8745696855
 C        -1.6480369274       -2.9013109025       -5.5639415156
 C        -0.9266663126       -3.8399796989       -4.5970054812
 C         0.5211242554       -3.6044712688       -4.3044086461
 C         0.5066515753       -3.3830503651       -2.7727105633
 C         0.3598930608       -4.6623771326       -1.8812449456
 O        -1.5412742055       -4.7203710209       -4.0583951776
 O         0.3100809883       -2.3029987455       -2.3462345650
 C         1.2421800833       -4.9722136840       -4.5833985924
 C         1.3224820379       -2.4876996006       -5.0272855695
 C        -0.7646065458       -4.5946377658       -0.9165092489
 C        -0.2508176088       -4.2513541194        0.5457323150
 C        -0.4191946128       -5.4260060067        1.6243612283
 C         0.5558676751       -6.6999856526        1.2173868817
 C         0.4118511132       -8.0019345561        2.0297872677
 C        -0.0610041901       -4.7923664020        2.9809123846
 C        -1.9324957006       -5.8388007596        1.8272276426
 O         0.0917235869       -3.1578766467        0.8815881755
 O         1.4088029874       -6.6197049174        0.3613278559
 C         1.0313228482       -9.1602288420        1.1544015086
 C         0.9179662407      -10.4328126381        2.0006543662
 C         0.8053591946      -11.7805911356        1.1590421626
 C        -0.0347440383      -11.8991262805       -0.2307904398
 C        -0.5715897520      -13.2634581290       -0.5640017460
 O         0.8262229463      -10.4467876076        3.1701590086
 O        -0.1124428227      -11.0275068157       -1.1019028208
 C         2.2609258507      -12.0811167156        0.6364468034
 C         0.3237183265      -12.8592271231        2.1154930573
 H        -0.6787664471        5.0388346523        5.8920509624
 H         0.2260963196        6.4262737250        5.4270117251
 H        -1.2755878974        6.6536121317        6.3403489519
 H        -0.3908724480        9.7221635819        2.3244473359
 H         0.5832747372        8.4177461099        3.1680054455
 H        -3.8490101632        6.3120439515        3.7601518346
 H        -3.8089353227        7.4664968031        2.3325303981
 H        -4.2452473416        8.0106432264        3.9767949239
 H        -0.7259973414        8.8776481507        4.8957994130
 H        -2.3279171612        9.4977037570        4.4737559535
 H        -2.2125042714        8.3446284832        5.7254024195
 H         0.8193848151        7.4840140620        0.7704625205
 H         0.1061348868        9.0276403266        0.1411291246
 H         5.7901782157        7.6711010940        0.0964899484
 H         4.5840651826        7.4547679887        1.5149119162
 H         1.2690605217        9.8513018759       -1.4595599950
 H         3.0017986421        9.5898949608       -2.2134715772
 H         2.5445476455       10.9457097266       -1.2496497316
 H         3.7942579713       11.1376047459        0.6275085956
 H         4.7530412505        9.8346644411        1.2845146795
 H         5.0395757328       10.3373529352       -0.3715275423
 H         5.5831408607        5.3024832765        0.8853689862
 H         5.2443303842        5.4601033081       -0.7834723213
 H         1.5704857664        2.1270439177        1.5385968402
 H         1.6684846203        3.7614187088        1.7280827407
 H         3.0451184890        3.3601363858       -2.9448479493
 H         4.3427755397        4.1915101534       -2.2926267128
 H         2.7781096315        4.9640705014       -2.5991049310
 H         3.8680752148        2.3367097108        0.6798917687
 H         3.5102462383        1.8544146229       -0.9272374587
 H         5.0153832863        2.8546688816       -0.5956531876
 H        -0.6855705486        3.4161459452        2.3735771600
 H        -0.9417031485        3.7889624592        0.7938099542
 H        -3.7067086684        1.7220520344       -1.4120565173
 H        -2.3942864957        0.7550204671       -1.8836750591
 H        -3.9844298794        1.3232895201        2.7936503085
 H        -2.2229754542        1.8705169563        3.1501030449
 H        -2.6775405170        0.1642784167        2.6491322643
 H        -3.0251256499        3.2690730770       -0.3102381769
 H        -4.4490137030        2.9636116227        0.7088275697
 H        -3.1512648354        3.6839716248        1.4154201767
 H        -4.6147740567        0.2083364503       -2.8624966484
 H        -5.2506504424       -0.2368327614       -1.2644481959
 H        -3.5105399278       -4.1035428588       -5.4420619870
 H        -3.7235588530       -2.7856896623       -6.4467159325
 H        -4.8202973221       -4.7877768114       -3.6910645511
 H        -4.8829025150       -4.4960276975       -2.0478545824
 H        -3.2894363961       -4.3298577102       -2.8725016474
 H        -6.6401083632       -2.0010146158       -2.3338436874
 H        -6.0900488459       -1.1740151010       -3.7229555897
 H        -6.6180571704       -2.9065354442       -3.8578086417
 H        -1.2942362357       -3.2139990354       -6.5521219168
 H        -1.2913404343       -1.8955311962       -5.4813063888
 H        -0.0151235226       -5.4066436557       -2.6360948722
 H         1.2999839547       -5.0278949277       -1.4169256408
 H         1.4821625748       -4.9638737334       -5.6565774975
 H         0.4547925026       -5.7194071390       -4.4470310073
 H         2.1422402801       -4.9827135840       -4.0035344174
 H         1.3146723619       -1.4965002254       -4.4764988953
 H         2.3275027933       -2.6340302974       -5.1167099810
 H         0.8910920422       -2.1883855513       -5.9766818865
 H        -1.2542770461       -5.6169461213       -0.9101793963
 H        -1.4620563198       -3.7769191921       -1.1798099457
 H         1.0379613439       -7.9527324129        2.9693389969
 H        -0.6348298260       -8.0503460279        2.3152044487
 H        -0.1853413937       -5.6362812353        3.6947864427
 H        -0.7213815863       -4.0224368986        3.2659188269
 H         0.9632020824       -4.4599280446        2.9681393931
 H        -2.4655536074       -6.0348427610        0.8851970979
 H        -2.1250069021       -6.7542745383        2.2965057364
 H        -2.4257456744       -4.9244619103        2.2768424043
 H         0.5334390413       -9.3101867853        0.2047487754
 H         2.1036474091       -8.9654531114        0.8862877950
 H         0.2255850757      -13.9488870789       -0.9665120069
 H        -0.9900181004      -13.7687067448        0.3270305786
 H        -1.3289859993      -12.9751404713       -1.3404094100
 H         2.9315523315      -11.9498016722        1.5052763603
 H         2.5969557399      -11.4465559171       -0.1837696956
 H         2.4043800085      -13.1722961521        0.2772537139
 H         0.6274573952      -13.8334916228        1.6738649635
 H         0.9338264013      -12.6873782073        3.0516127116
 H        -0.7338097247      -12.7538340204        2.3958694863
 Na       -0.6029837821       -1.3906410639       -0.3809963277
