155

 C        -1.0402483185        5.8316369030        5.4036016143
 C        -1.5412647136        6.1741620553        3.9899099929
 C        -2.2471706620        7.5929806058        3.7183310422
 C        -1.5644061630        7.9762944616        2.3802398223
 C         0.0297610967        8.2826310703        2.5859294651
 C        -3.7463037799        7.4517943624        3.4010435655
 C        -2.1467463374        8.5528685390        4.8850060531
 O        -1.3674480948        5.4297796873        3.0681592727
 O        -2.1758870551        7.8926745989        1.3385186166
 C         0.9247656026        8.2946148909        1.3688731707
 C         2.0960100517        9.2562117679        1.4402635870
 C         2.9616206349        9.2995167355        0.1142820265
 C         3.4164653039        7.8802431521       -0.2711009409
 C         4.5513869385        7.1888007494        0.6566359730
 O         2.2635441031        9.8805913706        2.4462436046
 O         2.9457886655        7.1871392630       -1.1383039519
 C         2.1580859186        9.8623375882       -1.0216815230
 C         4.2567829897       10.2160268751        0.3315503434
 C         4.5613685545        5.7374499815        0.2985280579
 C         3.1979528887        5.0175514904        0.4147129054
 C         3.0595436140        3.5506037177       -0.2459184100
 C         1.5810868420        3.1886451180        0.1951210462
 C         1.2911731782        2.8549215872        1.5935978559
 C         3.0964410340        3.8718399179       -1.7477148488
 C         4.3152462475        2.6478896932        0.1798297938
 O         2.2316770782        5.4528422637        1.0477093133
 O         0.6594294078        3.3205557376       -0.5415948873
 C        -0.1978679704        2.6312621904        1.6711090665
 C        -0.9242724243        1.5104998753        0.8046220953
 C        -2.5133315232        1.3642154825        0.8655490992
 C        -3.0196014926        0.3558134445       -0.1473648972
 C        -3.4050206946        0.8113405151       -1.5344862792
 O        -0.2998405949        0.5996823312        0.2554913810
 O        -3.0410263312       -0.8190251680        0.2130499956
 C        -2.8591833478        0.9743790492        2.3987753250
 C        -3.0772087615        2.8010599001        0.5039483219
 C        -4.3430644298       -0.1753084453       -2.2373673384
 C        -3.6634187294       -1.5065075918       -2.6380998307
 C        -4.5594656087       -2.4268626611       -3.4900540372
 C        -4.1554484455       -2.1132682168       -4.9659257710
 C        -3.1152474721       -3.0366854017       -5.6894874611
 C        -4.2663431373       -3.8847013075       -3.1300609051
 C        -6.0267011645       -2.1440267416       -3.3476381499
 O        -2.5251523723       -1.8899600649       -2.2404743760
 O        -4.6701522819       -1.1756913091       -5.5588864213
 C        -1.6978842958       -2.6651654942       -5.1320677406
 C        -0.8639310067       -3.9047583525       -4.7360942757
 C         0.6906684711       -3.6567436294       -4.2450751044
 C         0.5711637984       -3.4336509952       -2.7393198219
 C         0.3355165363       -4.7507957083       -1.8681395869
 O        -1.2925762431       -5.0493314781       -4.8438626459
 O         0.4640462581       -2.3303009508       -2.2507480858
 C         1.5047108217       -4.8699483081       -4.6458612530
 C         1.1786416886       -2.3239845188       -4.8699345990
 C        -0.8063083407       -4.5982915499       -0.8858862651
 C        -0.3460671600       -4.2402885654        0.5501477659
 C        -0.3400483727       -5.4247816421        1.6133182789
 C         0.7003186991       -6.5695211009        1.0887283841
 C         0.4224109193       -8.0716960414        1.5198729214
 C         0.0485644978       -4.8645130379        3.0242393244
 C        -1.8553897305       -5.9082936359        1.8870383300
 O        -0.0775196577       -3.1025297540        0.9067088117
 O         1.7100146071       -6.1588584975        0.6033730886
 C         1.4404368073       -9.2018085066        1.0306713307
 C         1.0841950561      -10.4618293561        1.9929152524
 C         1.0397881056      -11.8468682775        1.2890877457
 C         0.0561381230      -11.7326390875       -0.0184042788
 C        -0.1096627014      -13.1088156990       -0.9075774357
 O         0.8765278836      -10.1937942064        3.1251116976
 O        -0.5177759734      -10.7522846411       -0.3996637644
 C         2.5085844824      -12.2329922562        0.9298354089
 C         0.4122356265      -12.9066351125        2.2631651128
 H        -0.1236173681        5.2420478810        5.4102385459
 H        -0.7498518013        6.7215690403        5.9901378608
 H        -1.8381305434        5.2232756917        5.9608537009
 H         0.0626981874        9.2053993016        3.1574054722
 H         0.2359460671        7.5406585079        3.4215453008
 H        -4.2222615670        7.0863342327        4.3469134517
 H        -3.9400729479        6.6888654403        2.6103914322
 H        -4.2275217996        8.3464167124        3.1484443045
 H        -1.1345856202        8.5773051700        5.4090636569
 H        -2.3110812442        9.5269754593        4.5733152943
 H        -2.8505205413        8.3495254411        5.6964528016
 H         1.2668009478        7.2729456764        1.2153540319
 H         0.2208080073        8.5935235713        0.5090790103
 H         5.5430552780        7.6706664587        0.5180609142
 H         4.2869092747        7.2284459878        1.7461953540
 H         1.5346088199        8.9281138198       -1.3875573293
 H         2.7862208040       10.1555315438       -1.8432597138
 H         1.6002478865       10.7383144996       -0.8416014607
 H         4.0376023921       11.2997369445        0.3326978637
 H         4.6455157616        9.9127224974        1.3222836340
 H         5.0337182493       10.1549331451       -0.4073700325
 H         5.2915732502        5.2179716930        0.8645481602
 H         4.9016346670        5.6623069580       -0.7394153852
 H         1.8629779045        1.8719119632        1.7371877310
 H         1.7255622209        3.5263053616        2.3794853865
 H         2.7540216969        3.1601126994       -2.4839283550
 H         4.1361447057        4.1801401035       -1.9850791447
 H         2.6374701027        4.8252637976       -2.0436840547
 H         4.7398702728        2.7386715091        1.1685156399
 H         4.1268026735        1.6455133664       -0.0227838089
 H         5.2226704087        2.9486920995       -0.3953114432
 H        -0.4472311768        2.2165271360        2.6766643132
 H        -0.6753165556        3.6674045661        1.7141233358
 H        -3.8688068027        1.7740519226       -1.4153953547
 H        -2.5854126304        0.8929250064       -2.1849296435
 H        -3.8979044458        0.7075071912        2.4400210669
 H        -2.6963210041        1.8320320479        3.0305941988
 H        -2.3853404853        0.0247673676        2.5836679884
 H        -2.5115600640        3.3073050142       -0.3179740714
 H        -4.1170920756        2.8177201562        0.1599487619
 H        -2.9580206513        3.4259818494        1.3681821522
 H        -4.8763627766        0.3385418474       -3.0893379944
 H        -5.1625736659       -0.4156807330       -1.5882138925
 H        -3.3838646152       -4.0509503374       -5.6386096236
 H        -3.1878155604       -2.8289783188       -6.7172797878
 H        -5.0899419097       -4.5175810705       -3.4590598689
 H        -4.1131600105       -3.8821293213       -2.0978148535
 H        -3.3186865279       -4.3642733237       -3.5041432573
 H        -6.4080631678       -2.3476597069       -2.3466790859
 H        -6.2313576215       -1.1148577197       -3.6511986098
 H        -6.5593103914       -2.8476849425       -3.9324007679
 H        -1.1781917467       -2.1095237781       -5.9491996105
 H        -1.6788549975       -1.9945209673       -4.2192760301
 H         0.0112525194       -5.5040670225       -2.6227070655
 H         1.2528793983       -5.0594862132       -1.4068077175
 H         1.5029311749       -4.8546520716       -5.7109668158
 H         1.0877564850       -5.7189074634       -4.1334799377
 H         2.5307425940       -4.6355497829       -4.3091396256
 H         0.4276883253       -1.5236032007       -5.0111843487
 H         1.9644966710       -1.9888200145       -4.2622185081
 H         1.5603007834       -2.3642373979       -5.8580166476
 H        -1.4264786167       -5.5323667983       -0.8291027562
 H        -1.3910004356       -3.7709237504       -1.2861046182
 H         0.2442306471       -7.9568081042        2.6560947236
 H        -0.5680285784       -8.2364360031        1.0179388783
 H         0.0773449338       -5.7167214578        3.6760756912
 H        -0.7193913004       -4.1625947360        3.2424471318
 H         1.0153772899       -4.4430536361        3.0401188712
 H        -2.3613305179       -6.3386202325        1.0205560772
 H        -1.9834914820       -6.4261048825        2.8010091036
 H        -2.3744568998       -4.9684809682        2.1192646485
 H         1.4400870537       -9.3455369423       -0.0497998516
 H         2.5009200614       -8.9098490504        1.3462248418
 H        -0.1446323736      -13.9674476616       -0.1949553765
 H        -1.0409087805      -13.0464692910       -1.4139307532
 H         0.7401287305      -13.1978851227       -1.5924231822
 H         3.2508774658      -12.2781172378        1.7382633843
 H         2.8415221764      -11.4453055129        0.3044485163
 H         2.4232213141      -13.1774257978        0.3490759802
 H         0.9376012294      -13.8243535860        2.2861639425
 H         0.1597194746      -12.3481832955        3.1191675814
 H        -0.4836139724      -13.3215914620        1.8453266868
 Na       -0.7889999474       -1.5039368011       -0.6971244382
