155

 C        -1.8379938065        5.1608787279        5.2559228707
 C        -1.9490947579        5.7765160061        3.9187414048
 C        -2.7450137424        6.9775368682        3.6952567982
 C        -1.9418566132        8.1497901017        2.7714681857
 C        -0.4357009093        7.9134509526        2.6095444734
 C        -4.0851640193        6.5631337636        3.0475071316
 C        -2.9332688491        7.8782921507        4.9888433616
 O        -1.4148374864        5.2651925166        2.9382621832
 O        -2.6051085088        9.1020927829        2.5002026160
 C         0.1560920369        9.1045851653        1.7474293341
 C         1.6975834921        9.2746071752        1.9461772287
 C         2.6486056707        9.7521990882        0.7041934670
 C         3.1441912477        8.3090355920        0.0781081486
 C         3.9391813136        7.2558182119        0.7862229001
 O         2.2882312754        8.8089935741        2.8939568010
 O         2.8636993196        8.1786372212       -1.0656141174
 C         1.8476978598       10.4000360393       -0.5158512928
 C         3.8805207555       10.5046303762        1.1608080174
 C         3.8140269041        5.8139530127        0.1544357615
 C         2.9236762659        4.8156911696        0.9617420013
 C         3.0751081821        3.1883030693        0.6236807464
 C         1.6084684205        2.6934095855        0.7547242305
 C         1.2553675526        1.8115845583        1.9291763938
 C         3.5747759263        2.9723548704       -0.8278545554
 C         4.2716211293        2.6709952226        1.5410634154
 O         2.2345185947        5.1951210900        1.8275963519
 O         0.6749481476        3.0290939039       -0.0233053057
 C        -0.2674267343        1.7040839851        2.2571379743
 C        -1.0098577031        1.0440713879        1.0206702020
 C        -2.4692850274        1.5519643364        0.5976656111
 C        -2.9575473652        0.6074971076       -0.5454173915
 C        -3.3442939623        1.0783479182       -1.9299857779
 O        -0.4898679798        0.0237195154        0.6938993572
 O        -3.0530082939       -0.5907002643       -0.2547459832
 C        -3.4445087416        1.3774973970        1.8227353443
 C        -2.3480560801        2.9996134853        0.1952110092
 C        -4.2694430939        0.0796086813       -2.6306500754
 C        -3.7051144071       -1.2026226283       -3.2344619086
 C        -4.5160949146       -2.1476997112       -4.2334779805
 C        -3.6540581344       -2.2218941249       -5.6362199238
 C        -2.6611870217       -3.3912160501       -5.8416628825
 C        -4.6669072098       -3.4676916279       -3.4514312962
 C        -5.9292869626       -1.5887614225       -4.6691029691
 O        -2.6661904156       -1.6958857164       -2.8720476274
 O        -3.7176952034       -1.3538429864       -6.5006829216
 C        -1.2549509659       -2.7287085041       -5.5142085520
 C        -0.1601456393       -3.8185360477       -5.4424003558
 C         0.9135720344       -3.5381447715       -4.3640041525
 C         0.3488675844       -3.6164022930       -2.8882948753
 C        -0.3560404810       -4.8749790734       -2.4484603395
 O        -0.1755928801       -4.8533650365       -6.0439133299
 O         0.6039299280       -2.6893867604       -2.1385996805
 C         2.0607567291       -4.6436575922       -4.5280587412
 C         1.4275306743       -2.0765940968       -4.7000406627
 C        -1.2490816631       -4.7783411014       -1.1764860038
 C        -0.6150524741       -4.4000430819        0.1525309827
 C        -0.1445713481       -5.4483777395        1.2802403870
 C         0.3179617818       -6.8363258745        0.8446575261
 C         0.4513637772       -8.0732896102        1.8797887539
 C         0.8385666225       -4.7172166204        2.3136789441
 C        -1.5710196350       -5.7276263412        2.0003259917
 O        -0.5451041418       -3.2259964153        0.3891439463
 O         0.3623369115       -7.1492514804       -0.3174002246
 C         1.7059041738       -8.8138038553        1.6936121817
 C         1.6286494688      -10.2382281915        2.3703987278
 C         1.7081111625      -11.4590766487        1.4406701612
 C         0.6824877986      -11.2183806927        0.2651848502
 C         1.1586767758      -11.5726750687       -1.1590411238
 O         1.5292360105      -10.2888678747        3.5971366272
 O        -0.4285007152      -10.8349259890        0.5201852843
 C         3.2302226872      -11.5075626421        0.9837560574
 C         1.2661221630      -12.6588749629        2.3290658718
 H        -1.3857625003        4.1452441216        5.1908059052
 H        -1.2880928668        5.8189695032        5.9277136780
 H        -2.7821662047        5.1214517567        5.7760028301
 H        -0.0850446074        7.7340791880        3.5895163018
 H        -0.1967961082        7.0671245862        1.9709100012
 H        -4.7458008535        6.1293867478        3.7762396252
 H        -3.9333902186        5.9236489945        2.1552235144
 H        -4.6635445038        7.4329936476        2.6072188252
 H        -2.0228750103        7.9297727068        5.4996590447
 H        -3.1644240735        8.9109293779        4.6768174019
 H        -3.6675047605        7.6058612357        5.7677497488
 H        -0.0125614395        8.9480735587        0.7355572553
 H        -0.4880050134       10.0104513583        1.9665339571
 H         4.9674836832        7.5352206502        0.6694764442
 H         3.7698519028        7.0754830252        1.8267943232
 H         1.1036420271        9.7426800556       -0.7454443669
 H         2.5439279756       10.5123356913       -1.3389369256
 H         1.2740071178       11.3230054426       -0.1934449532
 H         3.6173575144       11.3826365587        1.7886666418
 H         4.6522691123        9.8795792194        1.7204413317
 H         4.4487063309       10.8307386809        0.2740143290
 H         4.8569720851        5.3899830663        0.1103154235
 H         3.5665168563        5.9407987577       -0.9069352469
 H         1.5669474485        0.7835139860        1.7835582315
 H         1.7419109102        2.1960078171        2.7700243236
 H         3.3392006469        1.9647681147       -1.1605714087
 H         4.5954957369        3.0510877544       -1.0555536534
 H         2.9782050084        3.5573481912       -1.5273991082
 H         4.1939735748        2.7208862851        2.6389787295
 H         4.3521494936        1.6431827523        1.2858963367
 H         5.1725252694        3.2533147417        1.3860226012
 H        -0.3372215718        1.0359446141        3.1174199859
 H        -0.6669728250        2.6501200747        2.4571751087
 H        -3.9543024204        2.0519599140       -1.9045538265
 H        -2.4440599356        1.3312898733       -2.5942503722
 H        -4.4357440485        1.5061544478        1.3690023800
 H        -3.1219948917        2.0807641838        2.5927406744
 H        -3.5285995834        0.3331612522        2.1735681635
 H        -1.7955416528        3.1574086456       -0.6975202264
 H        -3.3207140317        3.3700662800       -0.0180944123
 H        -2.1255786085        3.6361902260        1.0731158566
 H        -4.8244798459        0.6910639492       -3.3956163979
 H        -5.0432326631       -0.1631616240       -1.9190216200
 H        -2.8357514932       -4.1663459380       -5.0247128626
 H        -2.5401794509       -3.8856613781       -6.8333474614
 H        -4.9958243615       -4.3601021962       -3.9286850173
 H        -5.3596801403       -3.3356774234       -2.5843911480
 H        -3.7623963482       -3.5972370027       -2.9763011767
 H        -6.5523769008       -1.4813635999       -3.7743796561
 H        -5.8256052655       -0.6120441654       -5.0713179681
 H        -6.3268084404       -2.3296897324       -5.3143308897
 H        -0.9233279203       -2.0638974297       -6.4062816768
 H        -1.3187098248       -2.0635781989       -4.6160007017
 H        -0.9577116913       -5.2744958904       -3.3546252275
 H         0.3817499024       -5.6795453062       -2.3145294014
 H         2.8279669293       -4.3284452964       -5.2525953079
 H         1.6156841284       -5.5820532853       -4.8615581218
 H         2.6123845223       -4.6978978408       -3.5640808151
 H         0.7312415050       -1.3603986474       -4.3166956389
 H         2.3511358312       -1.9562876323       -4.0272401972
 H         1.5989554620       -1.9308190190       -5.7964017402
 H        -1.8732489693       -5.7090153840       -1.0702127745
 H        -1.9896388287       -3.9798919978       -1.4120704307
 H         0.3024325342       -7.7358292039        2.8484629095
 H        -0.3779276021       -8.6852381497        1.6227282633
 H         0.3077721864       -4.7291022459        3.2095513029
 H         1.0342343982       -3.6846788346        2.0588073473
 H         1.7222696202       -5.3126074831        2.2845725571
 H        -2.0655317800       -6.6202154084        1.5961384655
 H        -1.2835346568       -6.3046140540        2.9135417698
 H        -2.1357618248       -4.8148905189        2.1162174468
 H         1.8517169557       -8.9734785771        0.6458625426
 H         2.6111431567       -8.3868870223        2.1294174611
 H         1.7809619727      -10.7361592373       -1.5890265115
 H         1.7347667761      -12.5768209613       -1.1387289117
 H         0.2072082148      -11.6548615829       -1.7396843493
 H         3.7804505260      -11.3818318795        1.9610808632
 H         3.5146094288      -10.6428780454        0.3359694424
 H         3.3948599088      -12.4485734355        0.4980266120
 H         2.1054089957      -13.1978891906        2.7959546495
 H         0.8555735774      -12.2033005371        3.2179998703
 H         0.8602588775      -13.4209279139        1.6801948294
 Na       -1.0828518891       -1.5601489445       -1.0887316822
