155

 C        -1.5845146102        5.0445804495        5.0373151311
 C        -2.2709250003        5.5939880273        3.8444711826
 C        -3.0142989530        6.9454600437        3.7969965818
 C        -2.1638270379        7.9747168547        2.8662835168
 C        -0.6766603335        7.9504170103        2.8755028944
 C        -4.3357250148        6.7370284711        3.0727190214
 C        -3.1075370298        7.5843681804        5.1823078230
 O        -2.1452370559        5.0003115446        2.7727269373
 O        -2.7732094166        8.8296924379        2.3214430048
 C         0.0323651260        8.8888133881        1.7637865417
 C         1.5361037348        8.9604239285        2.0757587412
 C         2.5695618901        9.4887888757        0.9657539013
 C         2.8206209505        8.2402652987        0.1274514164
 C         3.7446665614        7.1973478878        0.7667659854
 O         1.9821220360        8.5170210917        3.1086339286
 O         2.4248777845        8.2613909787       -0.9826812441
 C         1.9415294759       10.5956676753        0.0652156475
 C         3.8847198996        9.9777556042        1.5206411746
 C         3.6683659415        5.6480467211        0.2656729852
 C         2.9608003385        4.7819940183        1.1485455357
 C         3.2376718233        3.2751625447        0.8270293218
 C         1.6798015162        2.7560848043        0.6796525349
 C         0.8614240958        2.6633142992        2.0330643379
 C         3.8783117239        3.0458845596       -0.5465364249
 C         3.9244005864        2.3692204824        1.8893293663
 O         2.3149984750        5.1712246314        2.1082694983
 O         1.2708680367        2.4142455593       -0.4126506387
 C        -0.6581894682        2.3590019940        2.0062179033
 C        -1.1630273282        1.4247053574        0.8704131235
 C        -2.5997582893        1.7086155763        0.4741846563
 C        -3.0647568913        0.6733485911       -0.5482425061
 C        -3.4965304209        1.0595931292       -1.9553471415
 O        -0.5503774625        0.5272655735        0.3065201544
 O        -3.0876324624       -0.5447378097       -0.2228345493
 C        -3.6036194979        1.5831913699        1.6256571240
 C        -2.7316452330        3.1707158249       -0.0260611739
 C        -4.4779731103        0.1046056075       -2.6428337164
 C        -3.7907821133       -1.0572989390       -3.3410149306
 C        -4.5940728766       -1.7504079086       -4.5150781777
 C        -3.3871275361       -1.9947259286       -5.5200057455
 C        -2.5555879829       -3.3303622977       -5.6056871864
 C        -5.2906157384       -3.0824550383       -4.0526685355
 C        -5.6622005942       -0.8593819782       -5.0507347165
 O        -2.7067035890       -1.4832723069       -2.9977268971
 O        -3.1149725728       -1.0781902443       -6.2994923043
 C        -1.0528332104       -2.9573358667       -5.4057980382
 C        -0.0137771382       -4.0404950603       -5.2888220562
 C         1.1752478576       -3.7459282973       -4.3913437562
 C         0.6203437869       -3.7496133615       -2.9159593742
 C        -0.0072966887       -4.9819151177       -2.4194836509
 O        -0.0264338639       -5.1069171231       -5.8786186475
 O         0.5618775073       -2.6673970128       -2.2629672986
 C         2.2431788941       -4.8026643739       -4.6134394858
 C         1.7204394983       -2.3533669798       -4.6852247329
 C        -1.1458127801       -4.8616156014       -1.2896808904
 C        -0.5187291861       -4.5378250469        0.1331388649
 C        -0.3740427082       -5.5268826909        1.2704331551
 C         0.0670717980       -7.1035949188        0.7226407299
 C         0.3296839375       -8.2790450759        1.7447961166
 C         0.7771372063       -5.0494001747        2.2475143810
 C        -1.7390648989       -5.7016376057        1.9741950251
 O        -0.2406110637       -3.3597141641        0.3192105278
 O         0.2523348960       -7.2810040751       -0.4593829649
 C         1.7293215385       -8.7481711738        1.5959071712
 C         1.9921715271      -10.1065202872        2.3455508691
 C         2.0253183815      -11.3249942054        1.3960554676
 C         1.0230912871      -11.1154181944        0.2737853486
 C         1.2640886432      -11.5423877083       -1.1780492941
 O         2.1554192502      -10.2035413257        3.5090940798
 O        -0.0952101959      -10.7284329392        0.5417945777
 C         3.6028205249      -11.6638347913        1.0568358016
 C         1.4471834652      -12.5073322737        2.3283695081
 H        -0.6028610724        4.5563967655        4.6940848609
 H        -1.2560517234        5.7708975491        5.8368503173
 H        -2.2201439262        4.3177518391        5.5394896836
 H        -0.2361875629        8.2857739958        3.8045677193
 H        -0.3248702047        6.9238006505        2.6649394324
 H        -5.0220379539        6.1972178433        3.6394396205
 H        -4.2200800778        6.2995024239        2.1067753371
 H        -4.8976409478        7.6883997830        2.8900196549
 H        -2.4302955366        8.3598137804        5.3182912032
 H        -4.1141571436        8.0759475556        5.3105929970
 H        -2.8678664025        6.9099146457        6.0032717943
 H         0.0330833391        8.5372796363        0.7737635079
 H        -0.4062834257        9.8975685244        1.7640556199
 H         4.8035457168        7.4139038605        0.6561399621
 H         3.4917857605        7.1302125277        1.8648204314
 H         1.2835610408       10.0317769463       -0.6247141147
 H         2.7319557739       11.0868936688       -0.5284346068
 H         1.3658660523       11.3453823108        0.6267965609
 H         3.8610732942       10.9037720418        2.0593488632
 H         4.3290427401        9.1975903944        2.0959993411
 H         4.5897107614       10.2009639944        0.6819577625
 H         4.6739419211        5.2680108383        0.2625199115
 H         3.3071272726        5.5721320221       -0.7165256509
 H         1.4043288828        1.8788276049        2.5175269917
 H         0.9672599313        3.5483898479        2.5975297729
 H         4.1477186764        1.9768462810       -0.7800059062
 H         4.8407238297        3.6095374857       -0.5788131687
 H         3.3060856588        3.4534703514       -1.3876507316
 H         3.9838037215        2.7784391891        2.9025250923
 H         3.5660357184        1.3123268897        1.8708085954
 H         4.9629594515        2.3520021083        1.5651058260
 H        -1.0075830356        1.8993251949        2.9183567732
 H        -1.1294330860        3.2949402388        1.9725964040
 H        -3.7663102881        2.1519436539       -1.9751052598
 H        -2.5973795776        1.1414320294       -2.6274099305
 H        -4.6414757732        1.5289866999        1.2828175519
 H        -3.5541560230        2.5415701516        2.1188453169
 H        -3.4411473700        0.6972722225        2.2107887692
 H        -1.9949402405        3.2054701280       -0.8208635600
 H        -3.6640840791        3.4733058143       -0.4850266886
 H        -2.4384272365        3.9289595345        0.7729190615
 H        -5.0660550744        0.7565832928       -3.3252655668
 H        -5.1270566546       -0.2864593817       -1.8578216818
 H        -2.9019206391       -4.1219711825       -4.9102730503
 H        -2.7757114370       -3.7900153290       -6.5899749049
 H        -5.9410529905       -3.3954001318       -4.8458417468
 H        -5.8658105712       -2.8348156898       -3.1097082230
 H        -4.7149593609       -3.9438803790       -3.7936698155
 H        -6.5101305354       -0.8124286766       -4.3697805027
 H        -5.2863091651        0.1234188749       -5.2582487306
 H        -5.9690200080       -1.3826622310       -5.9475299557
 H        -0.6814212522       -2.3704064352       -6.3351439017
 H        -0.9492234478       -2.2578013915       -4.6319533345
 H        -0.3527144782       -5.6768649988       -3.2770853362
 H         0.7661623298       -5.5951926364       -1.9340573907
 H         2.3241678978       -5.0507695829       -5.6919152521
 H         1.9862325312       -5.7420340089       -4.0899698593
 H         3.2424141964       -4.4606178020       -4.3456074183
 H         0.9066754083       -1.6828273152       -4.7235096220
 H         2.4937436175       -2.1617023457       -3.9713206061
 H         2.1099283242       -2.3789650051       -5.6922737191
 H        -1.5913697538       -5.8852784426       -1.2671379355
 H        -1.8413989724       -3.9978696871       -1.4971576215
 H         0.1323398484       -8.0517001292        2.7353667503
 H        -0.3317315214       -9.0678554077        1.3679114887
 H         0.8962776567       -4.0133297548        2.0001149228
 H         1.6878601064       -5.5074696247        1.9284565786
 H         0.4877972716       -5.2020208047        3.2697276454
 H        -2.5352296388       -5.6494662878        1.2239161713
 H        -1.8831499985       -6.6461465375        2.5006847836
 H        -1.8008739909       -4.8586904064        2.6606545508
 H         2.0719010392       -8.9413664424        0.5506574079
 H         2.4333976854       -7.9477878428        1.9766252732
 H         2.3175698488      -11.5986395641       -1.3960247991
 H         0.7571413659      -12.5234243089       -1.3445556091
 H         0.6895519501      -10.8336502600       -1.7532161047
 H         4.0940669957      -11.4736652945        2.0087243597
 H         4.0514174454      -10.9478637454        0.3567174784
 H         3.7493880085      -12.6749824259        0.8374188081
 H         0.9760787618      -13.2880847729        1.8444673250
 H         2.3160874197      -12.8595254028        2.8601796692
 H         0.7165170201      -12.0419099334        2.9505747306
 Na       -0.8115552412       -1.3989422334       -0.8664425682
