155

 C        -1.3830198744        5.2325266995        4.7490491096
 C        -2.3371540955        5.5652963019        3.6361044387
 C        -3.1828400480        6.9246616686        3.6965039208
 C        -2.3819397487        7.9822780525        2.8488486181
 C        -0.8557095506        7.8513604991        2.9763004638
 C        -4.6318559377        6.5999753129        3.3715718312
 C        -3.2342868406        7.5368207818        5.1502540328
 O        -2.4844588631        4.8713849860        2.6540147167
 O        -2.8466340546        8.8691570124        2.2093111191
 C         0.0301837405        8.6403118805        1.9771897706
 C         1.6196719562        8.8691324557        2.3379586902
 C         2.4963229837        9.4897907752        1.0945998264
 C         2.8524810731        8.2598557817        0.1248408772
 C         3.8454331397        7.1977846484        0.7752253324
 O         2.0337473103        8.4937473384        3.4019292460
 O         2.1903858655        7.9526746614       -0.8701353759
 C         1.6495959712       10.6683145102        0.4431161769
 C         3.7904191589        9.9836267425        1.7189074383
 C         3.6892238635        5.8244861129        0.1704703063
 C         3.1912155599        4.7039451680        1.1634019777
 C         3.2480549649        3.2156030333        0.8480641387
 C         1.6572073055        2.7301069161        0.6105767732
 C         0.8561763067        2.7318339982        1.9730439941
 C         4.0997176554        2.8539356789       -0.4203080849
 C         3.8671451832        2.4985909805        2.0526922142
 O         2.6533055929        5.1250351348        2.1676588701
 O         1.2272705848        2.4012432167       -0.4974144666
 C        -0.6599564508        2.3989420550        2.0356912934
 C        -1.1941265804        1.4655043096        0.9225173492
 C        -2.6793851007        1.8209736000        0.4236555440
 C        -3.1646592460        0.7096753521       -0.5778719215
 C        -3.5034075926        1.0448255933       -2.0182112680
 O        -0.5686780292        0.6059610860        0.3372300574
 O        -3.2215881030       -0.4455362401       -0.2501120855
 C        -3.6841423553        1.6865475812        1.6388282360
 C        -2.8449263947        3.1538981740       -0.2509119448
 C        -4.5484019169        0.0887931287       -2.6032360557
 C        -3.8312813014       -1.0470771904       -3.2994882348
 C        -4.4863770031       -1.6739051677       -4.6774288098
 C        -3.1838950369       -1.9055536111       -5.6343352533
 C        -2.3891077138       -3.1537604603       -5.3315148262
 C        -5.1864258014       -2.9819253555       -4.1640451045
 C        -5.3706888537       -0.6819285951       -5.5245842826
 O        -2.8642228680       -1.6005016520       -2.7909521281
 O        -2.8925355019       -1.1495715292       -6.5428858179
 C        -0.9432933942       -2.7932465906       -5.3340765356
 C        -0.0471817247       -4.0013672760       -5.1944937452
 C         1.3035788656       -3.8158162506       -4.3942985654
 C         0.6840822378       -3.6810250996       -2.9797563768
 C         0.2498720481       -4.9543485646       -2.3086248157
 O        -0.3930848800       -5.0521776956       -5.6538828827
 O         0.2966132847       -2.6395387428       -2.5999904209
 C         2.2320057395       -5.0116690682       -4.4305985636
 C         2.0820905839       -2.5712046048       -4.7728476964
 C        -0.9481899717       -4.8906917408       -1.2830349555
 C        -0.4487985796       -4.4975737954        0.0955851303
 C        -0.2826042260       -5.6244103477        1.1834899198
 C         0.0680395390       -7.0206882171        0.6816272281
 C         0.3318710108       -8.0943135462        1.7397020999
 C         0.7088952633       -5.2536924158        2.3137201827
 C        -1.7264157698       -5.8190453667        1.8461620703
 O        -0.2871820309       -3.3393552343        0.4468892001
 O         0.3152320946       -7.2088330306       -0.4851556044
 C         1.8376561427       -8.5390810555        1.5596582476
 C         2.0340697948       -9.9108549710        2.2930368621
 C         1.9947196332      -11.3304397221        1.4445300774
 C         1.0588291567      -11.3281225907        0.2179340834
 C         1.5702321652      -11.6211798047       -1.1599918417
 O         2.4528385110       -9.8825214422        3.4414713379
 O        -0.1047022177      -10.9989266658        0.3652740321
 C         3.4546155342      -11.6073399861        0.9124106158
 C         1.6234527933      -12.5530058409        2.3706809152
 H        -0.8737456593        4.3569047822        4.4814880042
 H        -0.5798981215        5.9154298231        4.8159172938
 H        -1.8239238310        5.1281881644        5.7594207336
 H        -0.5700050510        8.1982114739        3.9719888842
 H        -0.5033456479        6.8447108369        2.8570303634
 H        -5.2485520031        6.2735192823        4.2750801950
 H        -4.7896081907        5.7989710827        2.5820391977
 H        -5.1832135198        7.4410223351        3.0249655068
 H        -2.3254882233        7.5046731460        5.8462379439
 H        -3.4709019621        8.5368627291        5.0037479715
 H        -4.0545745890        7.0730026310        5.6873102438
 H        -0.0515933389        7.9566405673        1.0622778151
 H        -0.3610888488        9.6405633066        1.7175239508
 H         4.8479958694        7.4003402263        0.4251274546
 H         3.8858852287        7.1284462138        1.8121324001
 H         0.8862017696       10.2360611425       -0.1094845190
 H         2.2532380810       11.2654653862       -0.2359991850
 H         1.3392785856       11.4030743865        1.2097614289
 H         3.8420499487       11.0257499084        2.1036241653
 H         3.9652169456        9.2846894275        2.6222821845
 H         4.6372977610        9.9973197042        1.0461192512
 H         4.6138116917        5.6412754454       -0.4349527287
 H         2.7939580589        5.9201080167       -0.5490326218
 H         1.3972707048        1.9817066598        2.6742580687
 H         0.9602097036        3.7568447609        2.4461603367
 H         3.7897602485        1.8753220860       -0.6371564964
 H         5.1610543556        2.8306940151       -0.2939945643
 H         3.9117825872        3.5088645502       -1.2828902106
 H         3.2517594692        2.7150935473        2.9366525074
 H         3.8398176061        1.4559659766        1.8410413641
 H         4.9547633271        2.7179669634        2.2192785821
 H        -0.8010031515        2.0569283636        3.0897702460
 H        -1.3025605783        3.3838586720        2.0287768835
 H        -3.6945418140        2.0842163659       -2.1399754787
 H        -2.6253938339        1.0063600273       -2.6730325248
 H        -4.7054445417        1.6016500543        1.2327583780
 H        -3.8144234195        2.5962145255        2.2530360633
 H        -3.4237753608        0.7167031297        2.1222611835
 H        -2.2065552515        3.4333367147       -1.1077124731
 H        -3.9061432397        3.1398118701       -0.5187102912
 H        -2.7214037184        3.9269912599        0.4543434504
 H        -5.0823591784        0.7188136279       -3.2845194000
 H        -5.2064217619       -0.2892628929       -1.8223251166
 H        -2.7713605689       -3.6473068907       -4.4316253288
 H        -2.6002868222       -3.9157084311       -6.0980137277
 H        -4.8906956847       -3.8279911478       -4.8109090864
 H        -6.2244626125       -2.8187557868       -4.1053301994
 H        -4.8316020109       -3.3708162516       -3.2084851303
 H        -6.1607880902       -0.3437927278       -4.8524870251
 H        -4.7276699337        0.1445149675       -5.8610682899
 H        -5.7970794466       -1.1689328662       -6.3879985802
 H        -0.8183441852       -2.2403482630       -6.2484437152
 H        -0.6727569657       -1.9988521829       -4.5151980039
 H        -0.0574365906       -5.6828119457       -2.9953075096
 H         1.1454640286       -5.4155293453       -1.8303003540
 H         2.6118195609       -5.0958401280       -5.4443574487
 H         1.8567665685       -5.9902446892       -4.1116153505
 H         3.1794909672       -4.8352782365       -3.7968415016
 H         1.7433280567       -1.7029382250       -4.1891655705
 H         3.1414218043       -2.9359816196       -4.6536203134
 H         1.9098592120       -2.3399997790       -5.8350504486
 H        -1.3825363698       -5.8704770422       -1.2547189540
 H        -1.5452258769       -4.0766971892       -1.6283451138
 H         0.1805458256       -7.6163803330        2.7543876119
 H        -0.2994729792       -8.9548959032        1.6437772281
 H         1.5103804299       -4.6537380427        1.8492275644
 H         1.2570328967       -6.1340187502        2.7475353182
 H         0.2050368599       -4.5664879755        3.0278552019
 H        -2.4792129618       -5.8582078026        1.0052346016
 H        -1.7422320902       -6.7807867172        2.4846527039
 H        -1.9650101754       -5.0080689120        2.5695254724
 H         2.0947677185       -8.7294781479        0.5343458557
 H         2.4951418615       -7.7872782568        1.9223150965
 H         2.6687592825      -11.4714215519       -1.2147948935
 H         1.3293716867      -12.6866371273       -1.3166702200
 H         0.9336834634      -11.0482404603       -1.8848280019
 H         4.2294984610      -11.6994744853        1.7064681067
 H         3.6926023901      -10.7769489942        0.2665137731
 H         3.4471526772      -12.6228516113        0.3828047411
 H         1.0414000680      -13.3120867670        1.6871265971
 H         2.4479824020      -13.0812539081        2.9290325667
 H         0.9032458541      -12.0391804882        3.1280017429
 Na       -1.0977685230       -1.3709837358       -0.9664664754
