155

 C        -1.7251875587        4.8468056103        4.7009893094
 C        -2.7745629935        5.3578398405        3.7226201286
 C        -3.2974851110        6.8592068718        3.7802486043
 C        -2.3652477851        7.7369554952        2.8000411428
 C        -0.8022871184        7.7612602830        3.0313620961
 C        -4.8100577817        6.8608881939        3.3181471607
 C        -3.2214042369        7.4172188620        5.2099254556
 O        -3.2079589058        4.6451693875        2.8490005582
 O        -2.7768211098        8.5032247265        1.9835981500
 C        -0.2579243847        8.9764639218        2.1951779752
 C         1.2663045662        8.8916123113        2.4652495884
 C         2.3872671836        9.3280900439        1.3733852013
 C         2.5090655861        7.9898083612        0.6257760298
 C         3.8124437403        7.2269182300        0.5218865866
 O         1.7876568576        8.5114677659        3.4578111683
 O         1.5978977097        7.6551764731       -0.0776605158
 C         1.6851765455       10.5116654418        0.5896443765
 C         3.6696741519        9.8076089396        2.1637484356
 C         3.7015320573        5.8025959607        0.0629049355
 C         3.3952318776        4.7689651870        1.2414169291
 C         3.3853434088        3.2818575261        0.9917293737
 C         1.8672563489        2.8273850580        0.7884641834
 C         0.9237684679        2.0485227131        1.8208629681
 C         4.1853791594        2.8639862881       -0.2858193741
 C         3.9637343694        2.3620002048        2.1225606530
 O         3.3204814732        5.2746369451        2.3318512896
 O         1.3621891192        3.2486876432       -0.2695459842
 C        -0.5224323526        2.4026152202        1.5824110388
 C        -1.3085719584        1.4740323709        0.6941746770
 C        -2.8234977569        1.8834229396        0.3577503382
 C        -3.3438588791        0.7765783269       -0.6207324029
 C        -3.6746805978        1.2056147302       -2.1375159058
 O        -0.8070321540        0.3826529625        0.4313286384
 O        -3.5442436898       -0.3793523939       -0.3407630328
 C        -3.7457473717        1.8484456903        1.6881667413
 C        -2.7926129164        3.3069065704       -0.1963238643
 C        -4.6235732353        0.1500928386       -2.7677809701
 C        -3.9048087641       -1.0165291302       -3.4861892705
 C        -4.2451093581       -1.4498210277       -4.9961362326
 C        -2.9413444975       -1.7741217149       -5.8013948377
 C        -1.9549349599       -2.8815216570       -5.3258886611
 C        -5.0376414152       -2.8240061683       -4.8807598272
 C        -5.1581838185       -0.4321924656       -5.7642073875
 O        -3.1935535207       -1.6831433511       -2.7371452458
 O        -2.8301030162       -1.1519671814       -6.8713872019
 C        -0.6171541367       -2.9665421071       -5.9922593980
 C         0.1801989940       -4.1327136149       -5.3325075290
 C         1.4325965053       -3.9267642853       -4.3366072957
 C         0.7860921783       -3.5283479819       -2.9686598934
 C         0.4263896396       -4.7362490952       -2.1223477995
 O        -0.3547372897       -5.2337881158       -5.3766771884
 O         0.3492328813       -2.4428963911       -2.7291255518
 C         2.3183831033       -5.2157768188       -4.2586144622
 C         2.4479708598       -2.7535885329       -4.6890318440
 C        -0.8974534138       -4.6879973903       -1.2483675947
 C        -0.6441982070       -4.3330366545        0.2267833475
 C        -0.4133755431       -5.5699460486        1.2284181536
 C         0.1760223050       -6.7960368087        0.6021280730
 C         0.5455335681       -7.9571975839        1.5369124880
 C         0.5087837441       -5.0375649290        2.3708179357
 C        -1.7817141199       -6.0706887104        1.7861880682
 O        -0.7477498865       -3.1750649324        0.6359846186
 O         0.5250806948       -6.8760266993       -0.5373303761
 C         1.9884007437       -8.6302790539        1.1895795588
 C         2.2481918120       -9.8514604485        2.0948691635
 C         2.3498690718      -11.3805035055        1.4232826712
 C         1.2640020794      -11.4034719321        0.2640412593
 C         1.6758749879      -11.6643190161       -1.2102376286
 O         2.4943616797       -9.7157905438        3.2501667692
 O         0.1379737510      -11.0936749204        0.4948490675
 C         3.7647098804      -11.7660586532        0.9613109463
 C         1.8590930430      -12.4027052867        2.4956577097
 H        -1.5820080981        3.7396294474        4.7538517013
 H        -0.7541935041        5.1707500617        4.2875630340
 H        -1.8198300932        5.1616382133        5.7715473914
 H        -0.4054760160        7.9185969664        4.0112546892
 H        -0.4143363429        6.8098302452        2.7673912358
 H        -5.3084377568        5.9936468087        3.7114640713
 H        -5.0138179155        6.6520929189        2.2578849822
 H        -5.3574741383        7.7397249277        3.5708322611
 H        -2.1645414103        7.7144122926        5.3855844601
 H        -3.8955274014        8.2140351439        5.3707196580
 H        -3.5388414322        6.6339255871        5.9014276841
 H        -0.4356461334        8.8715273178        1.0996951894
 H        -0.8010923188        9.8953635205        2.5487689019
 H         4.2854256886        7.7050767946       -0.3223312173
 H         4.5344405915        7.2806243788        1.2492353627
 H         0.9652514494       10.1549437418       -0.0313892453
 H         2.3455020120       11.0984422950       -0.0525755324
 H         1.3485056624       11.3125895455        1.3028358779
 H         3.4311688015       10.4097036696        3.0616226044
 H         4.3019665327        9.0254823248        2.6930915059
 H         4.2326984065       10.4286279682        1.5163083775
 H         4.4895703521        5.3831093746       -0.5528101347
 H         2.7424910026        5.9048941616       -0.5065441519
 H         1.0061129334        0.9541249972        1.7338842145
 H         1.1747923211        2.3498146136        2.8121809869
 H         4.4537385972        1.8186701471       -0.2875374016
 H         5.1027773985        3.4371854062       -0.3109753900
 H         3.5406352196        3.1458580265       -1.1888011104
 H         3.8206928285        2.7963991594        3.1308375643
 H         3.4739110319        1.4365650489        2.1095216248
 H         5.0084934099        2.1527467773        1.8028924891
 H        -1.0173335873        2.5687014272        2.5273021032
 H        -0.5859878149        3.4244245062        1.1706936600
 H        -4.2120122829        2.1939001960       -2.1482766223
 H        -2.6949754788        1.4557817305       -2.6682203167
 H        -4.7830951190        2.0245619008        1.4220321246
 H        -3.5241255877        2.5859774940        2.4657871480
 H        -3.5344838531        0.8268860286        2.0317827901
 H        -1.8489668463        3.4755165173       -0.7213159239
 H        -3.6660053146        3.6035211478       -0.7798806008
 H        -2.6378070420        3.9621229367        0.6507509254
 H        -5.2711608914        0.7601485337       -3.3943670391
 H        -5.2125422427       -0.2125475612       -1.9300134543
 H        -1.7724337174       -2.7474722614       -4.2272074371
 H        -2.5479487869       -3.8404580249       -5.3412830893
 H        -4.4028986769       -3.6054600322       -5.3514081684
 H        -5.9144223829       -2.8197994139       -5.4746569965
 H        -5.1137389864       -3.1993567691       -3.8863137555
 H        -6.1041304856       -0.4068507211       -5.2115312365
 H        -4.6549584644        0.5068113711       -5.8012085394
 H        -5.2757012480       -0.6854520821       -6.7734116839
 H        -0.6159557518       -3.2414976249       -7.1076373320
 H        -0.1283727568       -1.9406298079       -5.9392015604
 H         0.3196801418       -5.6246338338       -2.7234788487
 H         1.2191055874       -5.0011694870       -1.3425259620
 H         2.9935842498       -5.3208464100       -5.0950949158
 H         1.7245845328       -6.1087541898       -4.2617455202
 H         2.9005770089       -5.4116312258       -3.2978138011
 H         1.9151156208       -1.8456786900       -4.6961765851
 H         3.1209203092       -2.6786768153       -3.7466491571
 H         3.1123100225       -3.0152295872       -5.5108909853
 H        -1.3862613879       -5.6967944969       -1.2371071427
 H        -1.5479697459       -3.9015953900       -1.6807878848
 H         0.5260913015       -7.5626021875        2.5638936904
 H        -0.1510201418       -8.7253414497        1.5648329448
 H         1.2067065825       -5.7275293460        2.7646208902
 H        -0.0763175622       -4.7452752849        3.2471067424
 H         1.1069999212       -4.2336983322        1.9916968344
 H        -2.5127860058       -6.3174687599        1.0335404788
 H        -1.5193520917       -6.7537399713        2.6446568022
 H        -2.2653435415       -5.2798880599        2.3082803402
 H         1.9493130067       -8.8969736094        0.1494923122
 H         2.7204869838       -7.8535636487        1.3459795737
 H         1.4607885538      -10.7118194415       -1.7545856167
 H         2.7669978954      -11.9484027174       -1.2542541276
 H         0.9673879581      -12.4260000253       -1.6152742022
 H         4.4815181536      -11.5548964011        1.8004457859
 H         4.1664702666      -11.3795107843        0.0611111031
 H         3.7444138772      -12.8746091273        0.8805817757
 H         2.6494354303      -13.1375570995        2.5359785938
 H         1.7110398957      -11.9722738070        3.4692436534
 H         0.8459471859      -12.7731375909        2.3629970413
 Na       -1.4281216888       -1.6755211327       -0.9025653488
