155

 C        -2.9457298553        5.0554737831        5.9030312891
 C        -3.3886040345        4.9087622498        4.4891487967
 C        -4.5645962593        5.7792341074        3.9319049860
 C        -3.6670213538        6.5893058602        2.8806397227
 C        -2.5270889346        7.5267663901        3.3647745643
 C        -5.5718662238        4.8409324320        3.1507475784
 C        -5.2486426256        6.6969047391        4.9372421062
 O        -2.7592462094        4.2057567855        3.6690089593
 O        -3.7249128922        6.3794677926        1.6753135132
 C        -1.1385370478        7.0724312398        2.8656916533
 C        -0.1640751331        7.6832031565        3.7517186664
 C         1.3379680784        7.8262178795        3.0363166790
 C         1.7057918956        6.5232643518        2.2240298286
 C         3.1879010029        6.0972174751        2.3237936652
 O        -0.2825900711        8.0720199942        4.8828135316
 O         0.8398250793        5.8189258067        1.7406171065
 C         1.3465121633        9.1031739456        2.1594063872
 C         2.3171698245        7.9274372714        4.2901232025
 C         3.8326017341        5.2575354680        1.1333531441
 C         3.4027790931        3.8084476167        1.2652326782
 C         3.1116046107        2.8169362835        0.1076803326
 C         1.5991208139        2.9222954998       -0.2576906434
 C         0.5258820924        2.8008068394        0.8296593732
 C         3.8124922229        3.3403187734       -1.1420131258
 C         3.4167095954        1.3641299067        0.4915520576
 O         3.2478966335        3.3638973472        2.4019643561
 O         1.2902826970        3.2798734759       -1.3719026279
 C        -0.8502406180        3.0852442678        0.2263483582
 C        -1.4542025141        1.8660635577       -0.3583864293
 C        -3.0996852275        1.8206897337       -0.3323251873
 C        -3.6037902122        0.7110001594       -1.3229381210
 C        -4.5113574564        1.0457135898       -2.4812295590
 O        -0.7454778609        1.0396556577       -0.7582257114
 O        -3.3352411659       -0.4550224714       -1.0352363765
 C        -3.3549194803        1.3506732355        1.0718226796
 C        -3.6413207748        3.2580255839       -0.6054525623
 C        -4.4080018811       -0.0649595920       -3.5164689230
 C        -3.0411270549       -0.5198622525       -4.0481047147
 C        -2.9429432608       -0.5192840014       -5.7066129874
 C        -1.4644482541       -0.8627895611       -6.1307447551
 C        -1.1193638017       -2.3159864732       -5.7297321435
 C        -4.0285800139       -1.5482547679       -6.2446977540
 C        -3.3289572488        0.9210109011       -6.3629843226
 O        -2.0552711640       -0.7472950440       -3.3793235884
 O        -0.7268964968       -0.0354999687       -6.6461267942
 C         0.2447208538       -2.9105198268       -6.1740183763
 C         1.0121562747       -3.6846753752       -5.0424066405
 C         2.1380781414       -2.9110512937       -4.1210799676
 C         1.2307217060       -2.5721579573       -2.8968793358
 C         1.1439914524       -3.3499055231       -1.5063846742
 O         0.7293165687       -4.8277048120       -4.7431068398
 O         0.4916973379       -1.6039478411       -2.8029357136
 C         3.3467600485       -3.8545573699       -3.8927981060
 C         2.6489232827       -1.6257067276       -4.6413326083
 C        -0.0123974651       -4.4152004094       -1.4780624067
 C        -0.9176158050       -4.2852590302       -0.1793650416
 C        -0.9896311223       -5.5106472815        0.7649032238
 C         0.5394323535       -6.0735699646        1.0652461202
 C         0.6798761221       -7.3819494139        1.7795512698
 C        -1.6639986527       -5.1254816938        2.0584589284
 C        -1.8817901389       -6.5124598494       -0.0240927260
 O        -1.5476305053       -3.2147710931       -0.0199570917
 O         1.4427239060       -5.2919111700        0.8650916857
 C         1.6248296015       -8.3648935150        0.9487712213
 C         2.5610811018       -9.1669914789        1.9365214563
 C         3.3392753503      -10.3020562741        1.3184150811
 C         2.3082522998      -11.4889529166        0.8334730750
 C         1.3852612312      -12.0649725473        1.7987639324
 O         2.5743516301       -8.9798309064        3.1163002649
 O         2.2424536959      -11.7922979539       -0.3522212143
 C         4.1851110391       -9.9831218758        0.0454725615
 C         4.3012423527      -10.8919959816        2.4203791645
 H        -2.5104599943        4.1174915497        6.2637015032
 H        -2.2915935561        5.9995408988        5.9664099133
 H        -3.7776254845        5.3888148012        6.5837229414
 H        -2.7644899791        8.6181842397        3.0555033153
 H        -2.3652477054        7.7249682761        4.4112688352
 H        -5.8968214479        4.1320134139        3.8320296311
 H        -5.0145661087        4.4716741011        2.3140107825
 H        -6.4792670433        5.3154968646        2.7027908124
 H        -4.6637116812        7.4424290470        5.3268983436
 H        -6.1228812873        7.2351239132        4.5237589219
 H        -5.6611266542        6.1052267760        5.7911958821
 H        -1.0906888906        5.9830641434        3.0439652287
 H        -0.9392851117        7.1221996157        1.8259711802
 H         3.7388731022        7.0706283608        2.5269945673
 H         3.1562841901        5.3232962566        3.1277205320
 H         0.5789671650        8.9448688308        1.3004914719
 H         2.3062237252        9.2466788114        1.6910195113
 H         1.1469793508        9.9937484747        2.7179988050
 H         1.9812573450        8.6784927842        5.0080196213
 H         2.5743725367        6.9624003682        4.6798342668
 H         3.3124189400        8.4303264324        4.0480338015
 H         4.9486669885        5.3257252985        1.1686224996
 H         3.5778171797        5.6631396441        0.1082743678
 H         0.7528343093        1.9509939201        1.5510062666
 H         0.8245575087        3.7366095027        1.3944535927
 H         3.8461650700        2.4251836389       -1.7847397180
 H         4.8756516190        3.6972002060       -1.0495815044
 H         3.2583738729        4.1746455177       -1.5421149120
 H         2.8843265458        1.0336791866        1.3618262931
 H         3.1860890904        0.6505125669       -0.2690622659
 H         4.4824894891        1.1614395954        0.6775449476
 H        -1.5419500856        3.3631044035        1.0578059087
 H        -0.9382015470        3.8667773442       -0.6512197626
 H        -5.4805732513        1.2216761611       -2.1664303578
 H        -4.2105500219        1.9879099599       -2.9130189863
 H        -4.3955740851        1.5076461975        1.2801029818
 H        -2.7148284816        1.7349021764        1.8240629561
 H        -3.2897780071        0.2925536379        1.2215199481
 H        -3.1279337676        3.7866356889       -1.4063373920
 H        -4.7047981661        3.2323589055       -0.8421957235
 H        -3.5313768003        3.8777062133        0.3431162333
 H        -5.0170766466        0.2076782073       -4.3891228600
 H        -4.8473358473       -0.8964089060       -2.9368033122
 H        -1.3224154930       -2.4339963466       -4.6840257222
 H        -1.9037754722       -2.9106962585       -6.2102747733
 H        -4.3088220774       -1.2311603852       -7.2426789230
 H        -4.9223388237       -1.7057837654       -5.5840366913
 H        -3.5838716140       -2.4756920148       -6.4496682801
 H        -4.3434641086        1.1893998456       -6.7643886683
 H        -3.2535280679        1.6527259392       -5.5601400666
 H        -2.6272353448        1.2017456736       -7.1309316115
 H         0.0961402334       -3.5920163505       -7.0726999646
 H         0.8400638439       -2.1084152883       -6.5148601319
 H         2.0646569392       -3.7747171920       -1.2384489845
 H         0.8873682049       -2.6941883662       -0.6566926557
 H         3.6544046985       -4.2951006774       -4.8502102231
 H         3.1936634183       -4.6369605331       -3.1168888591
 H         4.2189154708       -3.2773787872       -3.6239646650
 H         1.8371289976       -0.8504609043       -4.8259350339
 H         3.4613064180       -1.3579506280       -4.0139007309
 H         3.0934627327       -1.8647599946       -5.6311126045
 H         0.2416276128       -5.4550423595       -1.6936674030
 H        -0.7193260258       -4.2688819839       -2.2979480599
 H         1.1214904285       -7.1937673259        2.7816266294
 H        -0.1967179543       -7.9105341998        1.9726677693
 H        -1.9164586120       -5.9813286432        2.6218187533
 H        -2.5759438509       -4.6140184762        1.8150154336
 H        -1.0962014014       -4.4603315564        2.6848397715
 H        -1.2808923652       -7.4519512685       -0.1983325422
 H        -2.6366399964       -6.7959178940        0.6875678486
 H        -2.4438194000       -6.0263367266       -0.8302167091
 H         1.0249367463       -9.1254543963        0.4628746239
 H         2.0426688710       -7.7638817773        0.1397418041
 H         0.6113882411      -11.3308642903        2.0732600299
 H         0.9488748858      -12.9066947735        1.3132497182
 H         1.9663451345      -12.3220563051        2.6904301320
 H         4.8910440235       -9.1813735476        0.2215330653
 H         3.5417251848       -9.6794535275       -0.7621948822
 H         4.7632319699      -10.8229088388       -0.2322889057
 H         4.7375549399      -11.9557627580        2.2686633425
 H         5.1223029485      -10.1604285600        2.3665321936
 H         3.8835260123      -11.0059317561        3.4718104162
 Na       -1.0515693219       -1.1439438006       -1.1069352813
