155

 C        -2.7719587416        5.0949614234        5.9750989740
 C        -3.2979631641        4.8469388926        4.5007181253
 C        -4.5528809949        5.6239902984        3.7993145478
 C        -3.8866861470        6.5555391460        2.6750024524
 C        -2.8528240159        7.4675642534        3.2183647860
 C        -5.5330755558        4.6008617209        3.1596254862
 C        -5.1532848665        6.6551921843        4.7594840904
 O        -2.7845566558        3.9786536059        3.8627065119
 O        -4.0341072086        6.3945350606        1.5015306371
 C        -1.4354383413        6.9794118144        2.8371262496
 C        -0.2515638099        7.2974874442        3.7528299725
 C         1.1747289147        7.4685058487        3.2637576283
 C         1.6124068286        6.3543802547        2.2890328510
 C         3.1868423793        5.9543510119        2.3174416517
 O        -0.4790888839        7.7488620085        4.9263739938
 O         0.8292939210        5.8776483806        1.5094214318
 C         1.1637194884        8.8278670938        2.4788598646
 C         2.0855800043        7.7702356904        4.4335554697
 C         3.5341585347        5.0845967997        1.2166053670
 C         3.3548262241        3.5510657455        1.3713985127
 C         3.0873577786        2.9196141614        0.0025361295
 C         1.5483136193        3.0662258662       -0.3808590928
 C         0.6202573985        2.8785220969        0.8466161199
 C         4.0547608800        3.3329132629       -1.1374053241
 C         3.3124868167        1.4466331453        0.1305651783
 O         3.4483447008        2.9575249369        2.4186391993
 O         1.0758991732        3.2254445767       -1.4532560198
 C        -0.8212519203        3.1808379862        0.6508154618
 C        -1.6015991245        2.0278159917       -0.0736409400
 C        -3.1326932576        1.9118801346       -0.2310111156
 C        -3.4292204553        0.7320454842       -1.1651014353
 C        -4.2084441547        1.0278420949       -2.4839906171
 O        -0.7826332714        1.1635067807       -0.5508275584
 O        -3.1516193190       -0.4002421159       -0.8376599494
 C        -3.6562733918        1.5726182459        1.2515219077
 C        -3.7826319060        3.2577404530       -0.7042844293
 C        -4.3691392924       -0.2390827810       -3.5139454604
 C        -2.9979951542       -0.4845659086       -4.2059150303
 C        -2.9264268192       -0.4149416430       -5.7428750175
 C        -1.4244816318       -0.8939785000       -6.0625920871
 C        -0.9552716641       -2.4311113004       -5.6817400509
 C        -3.9855928525       -1.4136908918       -6.4370020284
 C        -3.1630576858        1.0712562940       -6.0480090560
 O        -2.0429286760       -0.5547890994       -3.4630753934
 O        -0.6357574361       -0.2261603727       -6.6880519758
 C         0.5454558321       -2.6692489582       -6.1520141963
 C         1.1676833076       -3.5230364798       -5.0343803158
 C         2.1627158340       -2.9378111176       -3.9778433078
 C         1.3209428881       -2.3820423212       -2.7174170956
 C         1.2532919560       -3.2608643609       -1.5368368931
 O         0.7786566322       -4.6355340436       -4.8780801939
 O         0.6105113595       -1.3954535688       -2.9440547472
 C         3.0483715060       -4.0820686023       -3.5085190785
 C         2.8556726656       -1.7745366276       -4.6505415859
 C        -0.0139466737       -4.1976658634       -1.5812427532
 C        -0.8347949622       -4.1172545414       -0.3085854620
 C        -0.8567354199       -5.4217912188        0.6120386404
 C         0.4876285575       -5.8852201667        1.0175363991
 C         0.6791169776       -7.1818227608        1.8244568170
 C        -1.6556026531       -5.0520697152        1.8814733807
 C        -1.5670166727       -6.5754420070       -0.1384623819
 O        -1.5047967518       -3.1581285333       -0.0402067147
 O         1.4417963805       -5.1787233034        0.7432186944
 C         1.3639533721       -8.2554276793        1.0015330301
 C         2.4217900892       -9.0970502908        1.8099888226
 C         3.3749240128      -10.2325907208        1.2786550221
 C         2.4509296915      -11.4575121751        0.8649177217
 C         1.4423900558      -11.9186086998        1.9293464816
 O         2.5461957278       -8.8210856663        3.0005253318
 O         2.4778905678      -12.0250028562       -0.1939404103
 C         4.1188848469       -9.6921902617        0.0871369842
 C         4.2979582342      -10.8266385890        2.3273254345
 H        -2.4086215072        4.1250829558        6.2872645640
 H        -2.0891066561        5.8580467556        6.0169877652
 H        -3.4860566111        5.4699912830        6.6344829203
 H        -2.9373760227        8.4719006744        2.9257448492
 H        -2.9458782880        7.5484194637        4.3040521566
 H        -5.8684830609        3.8809773407        4.0001217854
 H        -5.0432890089        4.1226781180        2.2686387090
 H        -6.3735579911        5.1630816288        2.7842698913
 H        -4.4755789941        7.5724645267        4.9098420661
 H        -6.1186585820        7.0437639033        4.5169690773
 H        -5.3341436100        6.2746916135        5.7400799663
 H        -1.4973961745        5.9229051212        2.5322542066
 H        -1.3377170548        7.3377761163        1.7745318405
 H         3.7054117038        6.8768264596        2.1574134753
 H         3.2898582215        5.4453371919        3.2989507461
 H         0.6627549669        8.8199182240        1.5664605784
 H         2.1949084770        9.0911475104        2.3104442068
 H         0.7636877186        9.5741341799        3.1435060814
 H         1.7245051537        8.6174017682        5.0074195840
 H         2.3375101782        6.8964041504        5.1063721138
 H         2.9785405843        8.1986459431        4.1126367390
 H         4.5832491145        5.1610252978        0.9737866418
 H         3.1268462148        5.6143359868        0.4018256828
 H         0.8954996262        1.9185514838        1.1402742149
 H         1.0315774086        3.4917526833        1.6159362720
 H         4.0895031031        2.5336342303       -1.8184555855
 H         5.0417876554        3.3938234898       -0.7455872295
 H         3.8667461455        4.3292275582       -1.5858315852
 H         3.1698451710        1.0368829840        1.1580200616
 H         2.5756177740        0.8386679995       -0.4217731478
 H         4.1892853880        1.0484937243       -0.3692380012
 H        -1.3520227905        3.3900913600        1.5788221625
 H        -0.8833763789        3.9680028520       -0.0128210398
 H        -5.3247078656        1.2747917300       -2.2351803983
 H        -3.8721019136        1.9633852012       -2.9677366544
 H        -4.6413017303        1.0959342139        1.3825202538
 H        -3.5859551327        2.4806111038        1.9232773867
 H        -2.9376217843        0.9471043146        1.8226975448
 H        -3.3697138280        3.6247065979       -1.6408253855
 H        -4.8645940217        3.1673642688       -0.7691760317
 H        -3.5205831537        3.9926179724       -0.0260967734
 H        -5.1964468493       -0.0167523635       -4.1610766581
 H        -4.6714361381       -0.9581184306       -2.7612115168
 H        -0.9443202590       -2.6209310335       -4.6094839582
 H        -1.5625708666       -3.1901040098       -6.1486168463
 H        -3.9307361706       -1.5439531160       -7.5269755424
 H        -4.9405137898       -1.1916523956       -6.0713633266
 H        -3.5809594455       -2.4124407676       -6.1399354388
 H        -4.0179351442        1.3070782151       -6.6025231779
 H        -3.0841002078        1.7932001992       -5.2314048175
 H        -2.3881088447        1.2839551548       -6.7832377278
 H         0.5656418214       -3.2894839068       -7.0265756446
 H         1.2126546426       -1.7775285048       -6.4066466952
 H         2.1409539645       -3.9200971592       -1.2023382225
 H         1.0060384983       -2.5876607894       -0.7250456412
 H         3.8047405143       -4.2008371701       -4.2973579680
 H         2.5191020253       -4.9934299328       -3.2496596683
 H         3.6330605954       -3.7715723580       -2.5694739882
 H         2.1700831570       -1.0110599418       -4.9418779307
 H         3.6478713350       -1.4722633786       -3.8921135928
 H         3.3658336784       -2.1177340567       -5.5545462051
 H         0.1328480456       -5.2283964040       -1.8746076673
 H        -0.7145675489       -3.9470166939       -2.3806316431
 H         1.3046140090       -7.1287806594        2.7151823963
 H        -0.3090744041       -7.6592255806        2.1828562961
 H        -1.9444101911       -6.0226272886        2.3931007760
 H        -2.5408880155       -4.3997370167        1.6514742184
 H        -1.0191719998       -4.4596855608        2.5490665308
 H        -0.9372724534       -7.4181765982       -0.1069105527
 H        -2.5972682031       -6.8042955246        0.2549374670
 H        -1.6888122448       -6.1552645213       -1.1158899103
 H         0.6443578981       -8.9484941155        0.4339345326
 H         1.9121251546       -7.6937470445        0.1801403837
 H         0.4950121794      -11.3713610392        1.6650036833
 H         1.1998081384      -13.0329957290        1.8597010052
 H         1.7606441854      -11.5814134642        2.9383844343
 H         5.1167124672       -9.3722681073        0.4035988277
 H         3.5471257545       -8.8589216821       -0.3432430442
 H         4.3354036227      -10.4823208000       -0.6795629394
 H         4.8703475324      -11.5816952929        1.7977562227
 H         5.0255364814      -10.0748243551        2.6898769001
 H         3.8759784770      -11.4352260495        3.1203871905
 Na       -1.0972436497       -1.2192210304       -1.4295552725
