155

 C        -3.3281219444        4.2789478744        5.7866223323
 C        -3.6231854371        4.4001534762        4.3160336075
 C        -4.8565556525        5.3474029293        3.8613149518
 C        -4.3058482567        6.0721009994        2.6030953551
 C        -3.2797803840        7.1244365852        2.8839162128
 C        -5.9164882491        4.3552893381        3.3219701290
 C        -5.4876530429        6.2307226708        4.9751749280
 O        -2.9424165695        3.8929960270        3.4088842259
 O        -4.5991133826        5.6640012231        1.4497392600
 C        -1.7881468283        6.6329097785        2.6386099607
 C        -0.8750363775        6.6100210306        3.8827956413
 C         0.7459560180        6.7282876115        3.5007654573
 C         1.3914717923        6.0541429580        2.3104808143
 C         2.9250950077        5.5786987366        2.4654877281
 O        -1.2679597764        6.7179967694        5.0090420769
 O         0.9616724201        6.0422414701        1.2278540539
 C         1.0463989550        8.1761384541        3.2413000502
 C         1.5308715232        6.4000583076        4.7483975174
 C         3.4700543372        4.8728305102        1.2073642761
 C         3.4345744867        3.2846661463        1.1851217790
 C         2.8642540315        2.6911854723       -0.1642925030
 C         1.3270921783        3.0891370645       -0.1365352208
 C         0.4991943500        2.8149687412        1.2457524562
 C         3.5558348001        3.4625730881       -1.2596567691
 C         2.8750047398        1.1560205308       -0.3819087705
 O         3.9517615194        2.5315647581        2.0080245319
 O         0.7445613771        3.6571965538       -1.0394450946
 C        -1.0133007154        3.0365912662        1.2168218815
 C        -1.6981286769        1.8176901541        0.4646639342
 C        -3.1951072026        1.8529968497       -0.0220759999
 C        -3.3153222350        0.7510898250       -1.1560974594
 C        -3.6335549361        1.2038162609       -2.6172863229
 O        -1.0033403746        0.9271466338        0.0354584504
 O        -3.1786742630       -0.3913372992       -0.9635105588
 C        -4.0340991151        1.3287990376        1.2418458319
 C        -3.8280560082        3.2357058533       -0.3163064378
 C        -3.8109322091        0.0038876715       -3.5217135585
 C        -2.5243670568       -0.3589180128       -4.2645467525
 C        -2.4898951398       -0.2944913663       -5.8928061734
 C        -1.1474360823       -0.7029910358       -6.6759373403
 C        -0.5288028812       -1.9839914366       -6.1774149944
 C        -3.6353026069       -1.1172210886       -6.4466700670
 C        -2.8869258763        1.1932207890       -6.2148123883
 O        -1.4893379848       -0.6547055383       -3.6793324288
 O        -0.6777600008       -0.0433876572       -7.5850623541
 C         0.8387250338       -1.7351754226       -5.4705037483
 C         1.4248776502       -2.9840530774       -4.8514313735
 C         2.5720759436       -2.8708637790       -3.8323571995
 C         1.8776592896       -2.1222516588       -2.5504170932
 C         1.5278129607       -3.0101771284       -1.3893379738
 O         0.8868818081       -4.0849892769       -4.9352726599
 O         1.5947207812       -0.9008578398       -2.6243039809
 C         3.1501744062       -4.3263369857       -3.5253478223
 C         3.5896973222       -1.8040589642       -4.2806821554
 C         0.2429131368       -3.8830153461       -1.6835138473
 C        -0.6703572227       -3.8198299809       -0.4718196742
 C        -0.9226804002       -5.2665181047        0.2546155353
 C         0.3946201364       -5.7551218169        0.7899510032
 C         0.5305349456       -7.1351176068        1.5105294276
 C        -1.8743643214       -4.9839267521        1.4517449144
 C        -1.4513575824       -6.1990258114       -0.8203040163
 O        -1.2374294658       -2.7565289811       -0.1625907883
 O         1.3515565438       -4.9999160686        0.7194895006
 C         1.7252694353       -7.8620224874        0.9387527183
 C         2.4545120751       -8.7040571072        1.9750758041
 C         3.4312392499       -9.7612236345        1.3657534379
 C         2.5407409953      -11.1622508548        1.1363771345
 C         1.4271095088      -11.3157253108        2.1972045929
 O         2.2594992037       -8.5040672337        3.1330514415
 O         2.9060328516      -11.9622897576        0.3191402093
 C         4.0244975424       -9.3666973624       -0.0937714411
 C         4.5461603798      -10.0494366626        2.3004412473
 H        -3.2044693352        5.3365670914        6.1772423162
 H        -4.3193001600        4.0117356018        6.2930019364
 H        -2.5357559832        3.5507558951        6.1332984613
 H        -3.4196346372        7.8564400602        2.0680761596
 H        -3.2334728355        7.4717624742        3.9220047650
 H        -6.4577734178        3.9275135813        4.1164438563
 H        -5.3799492450        3.5949928367        2.8335389031
 H        -6.6044780757        4.9396072282        2.7086960914
 H        -4.8148083749        6.4365646900        5.7688474728
 H        -5.8359489587        7.1929656646        4.6669836262
 H        -6.2595779390        5.6203206960        5.4898221745
 H        -1.6951509349        5.6082853588        2.2356360716
 H        -1.3102925854        7.3400615203        1.9284932654
 H         3.4244500655        6.5004501711        2.7707120774
 H         2.9391096293        4.9997272620        3.4552458486
 H         0.4159633980        8.5673972465        2.3267694484
 H         2.1247643117        8.2873428482        3.1006308267
 H         0.7938970050        8.7633015953        4.1087910146
 H         1.1508788176        6.9921092689        5.5866646482
 H         1.3749980865        5.3589285330        5.1056448985
 H         2.6280055120        6.5087001637        4.6568644167
 H         4.5600579475        5.1385380629        1.0258505969
 H         2.9112325940        5.3275278567        0.3593361379
 H         0.7336237566        1.8007073022        1.6344086537
 H         0.8411912472        3.6568676712        1.9584974795
 H         3.2876903078        3.0280971220       -2.2281369282
 H         4.6624173409        3.3732641657       -1.2593782694
 H         3.2181615279        4.5260412453       -1.2499189005
 H         2.8527948904        0.5205492314        0.5188443593
 H         2.0524678501        0.8563619665       -0.9289000208
 H         3.7551739907        0.7289072610       -0.8495686423
 H        -1.4913591515        3.0412701967        2.2571679330
 H        -1.4439843366        3.9680144263        0.7285836771
 H        -4.5796560621        1.7400679204       -2.7456774861
 H        -2.8508212433        1.8039859455       -2.9287131361
 H        -4.9390477938        0.7725563206        1.0715679576
 H        -4.4068836583        2.0927148556        1.8748466845
 H        -3.3837295155        0.6715406026        1.7926661457
 H        -3.2780500075        3.7511945604       -1.1111461419
 H        -4.8531478373        3.1121392029       -0.7267077610
 H        -3.9350074847        3.8420522870        0.5991274943
 H        -4.5962598484        0.2473289002       -4.2081520418
 H        -4.2148371705       -0.7605627218       -2.8336735896
 H        -1.2318762533       -2.3560465904       -5.4906193601
 H        -0.4384454226       -2.6868041767       -6.9882086530
 H        -3.6062320610       -1.0819592021       -7.5611517988
 H        -4.6338538019       -0.8733557425       -6.1520040856
 H        -3.5466453512       -2.0809453389       -6.0154005741
 H        -2.0897012772        1.9223522796       -5.8727279606
 H        -3.1102537668        1.2850110375       -7.2932161531
 H        -3.8251554290        1.4875615093       -5.7700217786
 H         1.6309450004       -1.4198068061       -6.2513076794
 H         0.7254212673       -0.8834702909       -4.7345132623
 H         2.3831480643       -3.6239920116       -1.1291036422
 H         1.3812116533       -2.3920778382       -0.5329167846
 H         3.6615072861       -4.6457495334       -4.4124292299
 H         2.3412401327       -4.9760261742       -3.3788930754
 H         3.8860264652       -4.2172695893       -2.6967981860
 H         3.1635614640       -0.8414177738       -3.9319526853
 H         4.4836318182       -1.9184844168       -3.7090286956
 H         3.8189902483       -1.9027114255       -5.3218847182
 H         0.4714312939       -4.8916370520       -2.0178490403
 H        -0.3658323410       -3.3030374152       -2.4211581337
 H         0.8111105249       -7.0071246465        2.5109583616
 H        -0.4483933851       -7.6414006993        1.4705759408
 H        -2.1763110100       -5.8792808640        1.9009298372
 H        -2.7210984253       -4.4329869888        1.0986723656
 H        -1.2401227268       -4.4590546070        2.1041177531
 H        -1.7079793025       -7.2108656948       -0.4735375565
 H        -2.3868386489       -5.6499945212       -1.0582569148
 H        -0.7545489047       -6.2328445336       -1.6365079438
 H         1.4219216943       -8.3845210649        0.0292808013
 H         2.3464985991       -7.0232865131        0.5674137386
 H         1.0711582721      -12.3079157887        2.0838009617
 H         1.7903928730      -11.0790493477        3.1500189267
 H         0.6040583444      -10.6598480153        2.0293211138
 H         4.9307532313       -8.7671565882        0.0190925121
 H         3.3451249607       -8.8009467980       -0.6743937251
 H         4.2204676679      -10.3249797037       -0.6112560526
 H         5.3197256525      -10.7061129006        1.7598565207
 H         5.0254054866       -9.0463377217        2.3138730414
 H         4.2271067205      -10.3520451895        3.3518721502
 Na       -0.8160700885       -0.8394627739       -1.4417363566
