155

 C        -3.5098389913        3.8506096727        5.8623402603
 C        -3.7712187227        4.1911491845        4.3136614232
 C        -4.9292193502        5.2237887417        3.8105014899
 C        -4.1985947595        6.0014824438        2.6201448035
 C        -3.1783066817        7.1185618743        2.8469956801
 C        -6.1230861608        4.3939615111        3.3193285485
 C        -5.3806108866        6.1628114844        4.9605012192
 O        -3.0125278334        3.7904320269        3.4828493052
 O        -4.3433467756        5.6888333067        1.4881664979
 C        -1.7682872690        6.6066573834        2.4955344576
 C        -0.8477474401        6.5885435240        3.6499454923
 C         0.7217808591        6.7240758338        3.6578633765
 C         1.3582733472        5.9621594748        2.4992368346
 C         2.8344067527        5.3895994237        2.5016858291
 O        -1.3454129159        6.3723357802        4.7707192400
 O         0.7024987757        5.7999216300        1.4659017256
 C         0.9109567164        8.2775063511        3.6331736704
 C         1.1430701266        6.2054225836        5.0110561873
 C         3.4882037909        4.9674448133        1.2155308593
 C         3.3932785786        3.4268549678        1.0679917927
 C         2.7054577789        2.8308468144       -0.2425012283
 C         1.1375050168        3.0313194806       -0.1322840162
 C         0.5479172152        2.7327205350        1.2332180067
 C         3.1679036423        3.2022629301       -1.7036928017
 C         2.9766566186        1.3027203650       -0.0387108316
 O         3.6745561211        2.6711631274        1.9679294399
 O         0.4823508083        3.6538342303       -0.9185237357
 C        -0.9448398307        2.8956376629        1.2091259821
 C        -1.6319519834        1.7627006535        0.4041733636
 C        -3.1504281667        1.7461140017        0.0388914586
 C        -3.2614821233        0.7969865166       -1.1759686563
 C        -3.4592683528        1.2960046739       -2.5979591283
 O        -0.8439830411        0.9253096367       -0.0297944668
 O        -2.8601050535       -0.4032347753       -0.9601216293
 C        -3.8469522521        0.9844179530        1.1192296095
 C        -3.6903622580        3.1892705355       -0.2523601450
 C        -3.6237654538        0.0483217291       -3.6109031806
 C        -2.4231060290       -0.2680861770       -4.5395135239
 C        -2.6010342083       -0.1452583760       -6.0249384639
 C        -1.2545147997       -0.6020055204       -6.7101307872
 C        -0.4024217053       -1.8385201430       -6.2238249772
 C        -3.7155669285       -1.1633761080       -6.5315545547
 C        -2.8136508270        1.2493240767       -6.5716944356
 O        -1.4180666350       -0.7405906152       -4.0770965362
 O        -0.7348205649        0.1218029165       -7.5064815285
 C         0.9501637352       -1.4877738171       -5.5369587045
 C         1.3811195833       -2.7100154207       -4.7060853001
 C         2.6877229529       -2.5560537218       -3.8076162705
 C         1.9745527423       -2.0902644087       -2.4843638849
 C         1.5364638327       -3.1011370711       -1.3214789613
 O         0.8780386232       -3.7806752940       -4.8491591908
 O         1.4665417787       -1.0319394384       -2.3498657142
 C         3.2837149173       -3.9578919366       -3.4922502702
 C         3.8480279277       -1.6186703974       -4.3085492893
 C         0.2613941012       -3.9009375695       -1.7177694873
 C        -0.7380261048       -3.8390402101       -0.5847565818
 C        -0.9789800398       -5.1935971864        0.2290099901
 C         0.3601683321       -5.6632966496        0.8534445662
 C         0.4507285728       -7.0892744345        1.3075944441
 C        -1.9966828602       -4.9484615143        1.3651783791
 C        -1.7896749953       -6.2470132362       -0.7374801264
 O        -0.9828784324       -2.7718341142       -0.1280247252
 O         1.2479223284       -4.8511900814        1.0339008664
 C         1.7421339154       -7.8591503796        0.7431844230
 C         2.5584121781       -8.6444266474        1.8360783773
 C         3.5347533768       -9.7672732915        1.4009562197
 C         2.5676008410      -11.1259120844        1.2949330466
 C         1.5621630163      -11.4988336287        2.3591573665
 O         2.3031407198       -8.4493235048        3.0236956240
 O         2.8529624315      -11.8145793626        0.3466151169
 C         4.1721850970       -9.5332147545        0.0164610118
 C         4.5652580792       -9.9402013131        2.6005651777
 H        -3.5121801206        4.7345910002        6.4867218030
 H        -4.2045087085        3.2207600401        6.3680408548
 H        -2.5410583155        3.3949481550        5.8113373347
 H        -3.2724801422        7.8679634548        2.1215573701
 H        -3.1474868942        7.4620476854        3.8937188484
 H        -6.5579446112        3.7778821312        4.1850523003
 H        -5.6466134640        3.8345117259        2.4582002768
 H        -6.9108434854        5.0556698850        3.0158826049
 H        -4.5112082288        6.8304006847        5.2775129315
 H        -6.0530329073        6.9007715848        4.5074357210
 H        -5.7492730650        5.7141088531        5.8342998107
 H        -1.8426022391        5.5526923752        2.1656734625
 H        -1.3588968746        7.3016061849        1.7395565069
 H         3.3460690848        6.1738075807        3.0784188698
 H         2.7578463851        4.6506337035        3.2300818231
 H         0.3820953363        8.7058808411        2.8803235458
 H         1.9307921159        8.6321716689        3.6545963378
 H         0.4819469695        8.5695974926        4.5982452389
 H         0.4614138204        6.5906679201        5.8168459934
 H         1.1580804900        5.0881829395        5.0496428190
 H         2.1428185816        6.4797176459        5.3070843515
 H         4.5360534904        5.0672238729        1.3511936806
 H         3.1878532572        5.5183125690        0.3362274414
 H         0.8097309464        1.7279774593        1.4678929288
 H         0.9333477674        3.4471189558        1.8578629178
 H         2.7461181159        2.4490780727       -2.3908851458
 H         4.2353060669        3.1180827046       -1.8951663538
 H         2.8327347502        4.2175052852       -1.9443553807
 H         2.6449807142        0.9194593790        0.8926511697
 H         2.4701010266        0.6518965944       -0.8193880171
 H         3.9744870488        0.9582492368        0.0430031194
 H        -1.5030177632        2.9562668249        2.0872179708
 H        -1.2000271350        3.7526129985        0.6838824008
 H        -4.4248316034        1.8364247709       -2.5917970265
 H        -2.5904461355        1.9400042141       -3.0282181691
 H        -4.8973722775        0.7780676300        0.8446552184
 H        -3.9546973955        1.4758360010        2.1244495554
 H        -3.4602798485       -0.0372346791        1.2335973382
 H        -3.1020248515        3.6142808155       -1.0796259156
 H        -4.6938035099        3.1898072681       -0.6702243443
 H        -3.7290934316        3.8050047360        0.6374468342
 H        -4.5563309233        0.3071967825       -4.1364235585
 H        -3.8297748421       -0.8784982505       -3.0848897972
 H        -1.0272142280       -2.6671725545       -5.7771388722
 H        -0.1157208331       -2.3281791465       -7.1768482930
 H        -3.7127106335       -1.1706516335       -7.5752369153
 H        -4.6945882508       -0.8538460066       -6.1912995838
 H        -3.7301781587       -2.1121998653       -5.9717318844
 H        -1.8999930776        1.7464348165       -6.6251915412
 H        -3.3717509123        1.2196464317       -7.4957268938
 H        -3.5291401996        1.8435258995       -5.9524361552
 H         1.6686271119       -1.3583205838       -6.2749078531
 H         0.8545029080       -0.5739391022       -4.9773016593
 H         2.2204927717       -3.8740317376       -0.8769393850
 H         1.3529452455       -2.4081752872       -0.4589667218
 H         3.8372471105       -4.3773735364       -4.3630731002
 H         2.3610045703       -4.5658850262       -3.2901336994
 H         4.0405935264       -3.8042504564       -2.7345982796
 H         3.5750746861       -0.5794060296       -4.1464033989
 H         4.7911278185       -1.8817708149       -3.7156489056
 H         4.0645747831       -1.9203810658       -5.3648653279
 H         0.6440263323       -4.8996753268       -1.9449830757
 H        -0.3789636608       -3.4646599273       -2.4658294240
 H         0.6163971330       -7.0159311236        2.4588155802
 H        -0.5116749351       -7.5783196578        1.1816942248
 H        -1.9981501094       -5.8237536719        2.0455703897
 H        -2.9050202371       -4.8664220604        0.7985621549
 H        -1.7126599360       -4.0269287827        1.8499706787
 H        -1.3426199216       -7.2054579233       -0.5177413270
 H        -2.8790445160       -6.2709350726       -0.5919583672
 H        -1.4231647812       -6.0062089091       -1.7615232556
 H         1.4375871830       -8.4673088811       -0.1634702095
 H         2.4723095248       -7.0784303851        0.3666036741
 H         1.8021480831      -12.4885231147        2.8260966922
 H         1.5188639801      -10.5779067039        3.0444628771
 H         0.5295314336      -11.6536501105        1.9304905643
 H         5.0315730921       -8.9591557194        0.2839828319
 H         3.5870673148       -8.8563312014       -0.6303636336
 H         4.5146422865      -10.4492564457       -0.3864146296
 H         5.4049779096      -10.5472325632        2.2867167750
 H         4.9638005855       -8.9844564541        2.9683905957
 H         3.9714752458      -10.4469911507        3.3560958731
 Na       -0.6696397450       -0.7473975656       -1.5906114866
