155

 C        -3.8643258115        2.9008787307        5.4838899326
 C        -4.0348684040        3.5917262072        4.1469567064
 C        -4.6185887183        5.0350964486        3.9174447073
 C        -3.8236498155        5.7805430877        2.8493250135
 C        -3.4691387603        7.2273213011        2.9158258454
 C        -6.0406169328        4.7178203027        3.2806668579
 C        -4.8695613940        5.9411891879        5.1645491945
 O        -3.8651975389        2.9372444893        3.1335268660
 O        -3.4068485308        5.1020796506        1.8520099454
 C        -1.9311711571        7.3651906718        2.9769314331
 C        -1.2124762501        6.2383191289        3.7638827011
 C         0.2748538869        6.2706685275        4.0437624916
 C         0.9616345671        5.9362795683        2.6632477370
 C         2.6154969938        6.1267445218        2.5300283729
 O        -1.8692262669        5.3843729242        4.2845656250
 O         0.4607798980        5.4676848656        1.6899245135
 C         0.8229714839        7.5639006695        4.7021208292
 C         0.5876322931        5.0626487029        5.0507516064
 C         2.9185469762        5.6387903545        1.1462715280
 C         3.0077528549        4.0527817751        1.1976425529
 C         2.5743977951        3.1675839907        0.0242344546
 C         1.0208410655        2.8805881441        0.1922973646
 C         0.3840314901        2.0868368256        1.3703335197
 C         2.8787532530        3.8730461149       -1.3300065826
 C         3.4581739376        1.8711894159        0.2314449734
 O         3.5014388230        3.5132748199        2.1907369505
 O         0.2328811850        3.3307824186       -0.5965049688
 C        -1.0794959188        2.1853366931        1.2982928209
 C        -1.6865644555        1.1660889914        0.3235664412
 C        -3.2796797676        1.1044717592       -0.0432457259
 C        -3.3746254230        0.4999645531       -1.4135172419
 C        -3.2430561695        1.4216558749       -2.6285733891
 O        -0.9499767587        0.4157430885       -0.2275415940
 O        -3.3951128403       -0.7411624659       -1.5776412403
 C        -3.7734467508        0.0232924529        0.9664152854
 C        -3.9966103834        2.5078473168        0.0281641155
 C        -3.5424123051        0.7182710102       -4.0366525940
 C        -2.2057094122        0.2033083068       -4.8544524427
 C        -2.3466855223        0.0552018098       -6.3805487488
 C        -0.7496470420       -0.1521566110       -6.8666689945
 C         0.0047627410       -1.3979978468       -6.5154024596
 C        -3.2111338141       -1.1860156525       -6.7951144805
 C        -2.8299270735        1.2843096698       -7.1190679618
 O        -1.2043160105       -0.1877476059       -4.3095147343
 O        -0.2312729262        0.7408359738       -7.5035234464
 C         1.3296962919       -1.1457937425       -5.8486123743
 C         1.6963764183       -2.2425000469       -4.8771327476
 C         2.8580960624       -1.9416108540       -3.7130028007
 C         1.9668387359       -1.9512543429       -2.4415490459
 C         1.8065501773       -3.1050011159       -1.4137249498
 O         1.2691716911       -3.3964073849       -4.9980899295
 O         1.3981757027       -0.8802757653       -2.3686151016
 C         3.9496147901       -3.1033993129       -3.7761758421
 C         3.5485111533       -0.4888405740       -3.7350432243
 C         0.7334387097       -4.1953069099       -1.9296571989
 C        -0.4149895953       -3.9787484261       -0.9951328577
 C        -0.8388353454       -5.1434001668        0.0354808878
 C         0.4505345863       -5.7849595391        0.7089605714
 C         0.4325402630       -7.2274064929        1.3274627694
 C        -1.7374155216       -4.6795744943        1.1608260852
 C        -1.6203290929       -6.1239716449       -0.8218058895
 O        -1.0530927737       -2.9366755444       -0.9021700984
 O         1.4648221415       -5.1557728182        0.6105597203
 C         1.7161454248       -7.9871670983        0.9484490018
 C         2.3997558955       -8.6295282031        2.2591471292
 C         3.6149450385       -9.5265549217        1.9206701016
 C         2.7285107133      -10.8169532691        1.5528878061
 C         2.6043537931      -11.8532168839        2.6603241059
 O         1.8597829377       -8.6032396618        3.3156457488
 O         2.0160938316      -10.8812295664        0.5541128629
 C         4.3769196341       -9.0908681981        0.7115834499
 C         4.5289171411       -9.6271401955        3.1517012476
 H        -3.0042175335        3.3003128145        6.0907217033
 H        -4.7652467044        2.9355136020        6.1473978680
 H        -3.6010359418        1.8280891033        5.3489620929
 H        -3.7804158729        7.6125034291        2.0029757715
 H        -3.9767827104        7.8926121926        3.6664725976
 H        -6.5911650439        3.9300418064        3.8166573310
 H        -5.8427857561        4.4338501179        2.2619224527
 H        -6.4943126128        5.6560415984        3.2338237734
 H        -4.0228037195        6.5713348344        5.5161784228
 H        -5.7267407374        6.5501013753        4.9246456160
 H        -5.2154034477        5.3189733538        5.9515498306
 H        -1.5356928194        7.1692778441        1.9803187365
 H        -1.5062032256        8.3369104425        3.3629605517
 H         2.9391196019        7.2185412461        2.6823836991
 H         3.0537826600        5.5318497486        3.3500870627
 H         0.5975298834        8.5447293870        4.1334618590
 H         1.8952908564        7.4024589492        4.9157845677
 H         0.2627475378        7.6445864515        5.6175332242
 H        -0.3051888981        4.9334994489        5.6920770786
 H         0.7263694799        4.0842669707        4.5125631779
 H         1.4763695041        5.3053050730        5.5769405816
 H         3.9367687839        5.9610419372        0.8870579135
 H         2.0898499674        5.8426091610        0.4463282089
 H         0.6770630343        1.0461659574        1.2929300482
 H         0.6294074892        2.5082836347        2.3643518535
 H         2.9944658895        3.1290885015       -2.0679403385
 H         3.7564753423        4.4732937924       -1.2607749451
 H         2.0272717863        4.4902030925       -1.6718797027
 H         3.3195534324        1.4157294749        1.2227703248
 H         3.1818868088        1.0555917521       -0.4399137336
 H         4.5040813925        2.0789688442        0.0151744208
 H        -1.6804870427        2.0523499488        2.2299111563
 H        -1.3963472577        3.1254783194        0.9390967245
 H        -3.7399656395        2.3550715109       -2.4091091250
 H        -2.1396735391        1.5861746898       -2.6713888563
 H        -4.7300834655       -0.3381257023        0.6225269753
 H        -3.6488466769        0.2543890884        2.0214417597
 H        -3.0559790295       -0.8092289512        0.8834386660
 H        -3.5256106067        3.1955235294       -0.6872812035
 H        -5.0720650648        2.3742078041       -0.0937871883
 H        -3.8716455884        2.9683259085        0.9571227849
 H        -4.0420887175        1.5174342029       -4.6235833197
 H        -4.1926546208       -0.1271799134       -4.1341489845
 H        -0.5820834711       -1.9837097122       -5.8456851651
 H         0.1665152544       -1.9771397713       -7.3976263678
 H        -3.2492413026       -1.4111305948       -7.8674834896
 H        -4.1831520828       -0.8870024499       -6.5571073459
 H        -2.8410348418       -2.1511494016       -6.3975801654
 H        -3.1963348309        2.0781480684       -6.4569516303
 H        -2.0036946306        1.7165329687       -7.7472354975
 H        -3.7174928857        1.0596771019       -7.7284364530
 H         2.1504141906       -1.0770520624       -6.5659792686
 H         1.3430261684       -0.1836613088       -5.2151916006
 H         2.7286551208       -3.6652525729       -1.2054248738
 H         1.3565244345       -2.6753627406       -0.5597846745
 H         4.6615478990       -2.7642569115       -4.4591799380
 H         3.4600049721       -3.9090451533       -4.1933791127
 H         4.3107922122       -3.3820189358       -2.7799673290
 H         2.8070892202        0.2688896775       -3.6347423974
 H         4.1609999129       -0.4235848314       -2.8477270876
 H         4.0967174894       -0.2219896273       -4.5918397434
 H         1.2263044826       -5.1695554115       -2.0930331762
 H         0.2824096288       -3.8863962529       -2.8751368812
 H         0.3115986298       -7.0687481948        2.3796892079
 H        -0.4455118923       -7.7258227629        1.0340101237
 H        -1.8308499268       -5.4612543777        1.9242902951
 H        -2.6866413281       -4.3293069093        0.7173535348
 H        -1.2412353642       -3.7853643922        1.5267798888
 H        -2.0143900855       -7.0094869195       -0.3619261007
 H        -2.4669058480       -5.7412499566       -1.4953847297
 H        -0.8707503937       -6.4251745204       -1.5356910141
 H         1.6519201433       -8.8674434561        0.2437753486
 H         2.4122306815       -7.1979415260        0.6833309271
 H         3.4709259756      -12.0097730079        3.2332880574
 H         1.9728431837      -11.3365885411        3.3304161508
 H         2.1338333438      -12.7417230107        2.3683381806
 H         4.8639298669       -8.1457002037        0.9810983111
 H         3.7885689891       -9.1057133484       -0.2083040382
 H         5.1325548300       -9.8646163044        0.4684420558
 H         5.2822242424      -10.4229810844        2.8437085430
 H         4.9450676013       -8.6180212966        3.3275308149
 H         3.8045495011       -9.8852332996        4.0077729004
 Na       -1.1311354663       -1.0890542247       -2.1517764094
