155

 C        -3.8424163397        1.8507548494        4.4364446095
 C        -5.1469804781        2.4700656247        3.8071950230
 C        -5.5657378532        4.0035774381        3.9332781084
 C        -4.2653049453        4.9091987309        3.8869506158
 C        -4.0703939745        6.1159228395        4.8905838347
 C        -6.4437362251        4.5292290078        2.8509956906
 C        -6.4215590832        4.0944300916        5.2109604057
 O        -5.9379080829        1.6602738539        3.3016254798
 O        -3.4106085699        4.4552689003        3.2041364924
 C        -2.6673503289        6.6542449146        4.6794397470
 C        -1.5511438696        5.7206973414        5.1999478857
 C        -0.1001317673        6.1926291013        4.9161125187
 C         0.2119990136        5.8812839267        3.3250963597
 C         1.6823329872        5.8171659350        2.9405929346
 O        -1.8279820480        4.7203372990        5.7935150323
 O        -0.7241596177        5.7253601543        2.5606289969
 C         0.0049128675        7.7430305919        4.8813845502
 C         1.0232377175        5.6718386448        5.8251969915
 C         2.0802857517        5.6036807513        1.4373908510
 C         2.5840161933        4.1580663966        1.3018338092
 C         2.4183316306        3.3389411878       -0.0261940907
 C         0.7674712758        3.1921953643       -0.1493979208
 C         0.0205234235        2.7738081479        1.0986928796
 C         2.9817216090        4.1536607655       -1.2172922974
 C         3.2427868982        1.9799026043        0.0195195733
 O         3.0815619688        3.6092931467        2.2810688359
 O         0.1929422176        3.6014868501       -1.1242288532
 C        -1.5463546231        2.5419117101        0.8394953639
 C        -1.8632251907        1.3856824643       -0.1253390365
 C        -3.3430901072        1.0699161947       -0.5012223915
 C        -3.2755977551        0.7712808889       -2.1021712547
 C        -3.0262076291        1.9446085453       -3.0821342246
 O        -1.0266395295        0.5773488419       -0.5299303814
 O        -3.4286543625       -0.3627755523       -2.4461445120
 C        -3.8480674133       -0.0985887408        0.3855011783
 C        -4.2457253233        2.3109740142       -0.2313936970
 C        -3.0461885497        1.6603061439       -4.5582165451
 C        -2.0386801484        0.6274018530       -5.1200775868
 C        -1.6911001285        0.6846399366       -6.5558147078
 C        -0.0371644239        0.7705575131       -6.9025632428
 C         0.7762927503       -0.4244150323       -6.4580369478
 C        -1.9478811181       -0.8277405454       -7.1621041827
 C        -2.5156315557        1.6751456669       -7.4568073996
 O        -1.4921614473       -0.2015154716       -4.4364154770
 O         0.4610131080        1.8021458364       -7.2811690258
 C         2.2515434168       -0.1405271247       -6.0627846859
 C         2.8524025029       -1.5024519451       -5.6562131333
 C         3.3082115394       -1.6499324062       -4.1024376415
 C         1.9669311504       -1.7764547737       -3.1888880575
 C         1.9763279900       -2.9722720090       -2.2308096938
 O         3.0683972856       -2.4198139202       -6.4531173008
 O         0.9741339974       -1.0198271323       -3.3484981799
 C         4.1092667907       -3.0444075946       -4.1905359397
 C         4.1166683581       -0.4568313090       -3.5953226594
 C         0.8951252162       -4.0161181663       -2.5920651823
 C        -0.1215193490       -4.3257296349       -1.4297286106
 C        -0.1567554228       -5.8553987458       -0.8318613444
 C         1.2708208975       -6.1351738628       -0.1661673878
 C         1.3942000724       -7.3047744781        0.7966203333
 C        -1.3172298985       -5.9563640002        0.1433116657
 C        -0.3200919706       -6.8530202550       -2.0012447136
 O        -0.9390824238       -3.4539009613       -1.0663995694
 O         2.2386798242       -5.5068018597       -0.3930906858
 C         2.5196823606       -7.3538644574        1.8079781130
 C         2.3848418641       -8.2160702769        3.0143046831
 C         3.3373190510       -9.5564460248        3.2468321512
 C         2.9235694599      -10.4922725682        2.1365606661
 C         3.5824996654      -11.7851731030        1.8351021078
 O         1.5872824610       -7.9454083374        3.8561350679
 O         1.9123964297      -10.2252517511        1.5167147153
 C         4.8238548774       -9.0618670008        3.1229826113
 C         2.9932702486      -10.1704454563        4.6406008705
 H        -4.1084540250        0.9431996018        5.0403485164
 H        -3.0921743571        1.5827707172        3.6435218507
 H        -3.3998222171        2.3899476519        5.3038830947
 H        -4.9561629190        6.8288630200        4.7469913014
 H        -4.1224062240        5.6048197677        5.8524486435
 H        -7.4267273728        4.1307796985        2.9766159653
 H        -6.0621321149        4.3616078127        1.8316696400
 H        -6.3911664712        5.6299862768        2.9953636926
 H        -5.7872869085        4.1920571165        6.0565744407
 H        -7.1329787713        4.9178590862        5.2196191824
 H        -7.0229007822        3.1576293847        5.3591941203
 H        -2.4340924810        6.9391405370        3.6493979848
 H        -2.6406326292        7.6429306013        5.2041239259
 H         2.3130639598        6.5609887806        3.3789059544
 H         1.9219876017        4.8232581018        3.3595752585
 H        -0.6677034502        8.2450839774        4.2518506014
 H         1.0546682274        8.0722892704        4.7428162682
 H        -0.3660921302        8.1842402220        5.8780304398
 H         1.7231236092        6.4119073816        6.2207936561
 H         0.5421294215        5.0607197819        6.5706201448
 H         1.6944548810        5.0190916771        5.2371495791
 H         2.7832545560        6.3710606022        1.0515250324
 H         1.2446788715        5.6644084437        0.7751574570
 H         0.5644742228        2.0568880969        1.6526531147
 H         0.0503817093        3.6492293540        1.7615249890
 H         2.2237020382        4.1660007258       -1.9805947268
 H         3.9319610710        3.8242975343       -1.5854586264
 H         3.1134066100        5.1418192351       -0.9413768800
 H         3.1227702474        1.5458375932        1.0017972825
 H         2.8136179968        1.3957247069       -0.7770928462
 H         4.2762126890        2.2740821950       -0.2297330653
 H        -1.9882079723        2.2157796847        1.7834420506
 H        -1.9553002182        3.4786801399        0.5018522857
 H        -3.6996062751        2.8049821745       -2.7303703888
 H        -2.0097866119        2.3011442824       -2.9159252496
 H        -4.8432303213        0.2090384224        0.7323811637
 H        -3.0529746084       -0.3013919294        1.0727345882
 H        -3.9319218862       -1.0143289032       -0.1739133250
 H        -3.8690906021        3.2464556570       -0.4736454589
 H        -5.2070872325        2.1113740319       -0.6316071695
 H        -4.4599841054        2.4537739990        0.8490992403
 H        -3.0726495941        2.6032210527       -5.0864376984
 H        -3.9882448386        1.1528171380       -4.8162649454
 H         0.2722608011       -1.0420127079       -5.7428313603
 H         0.7843857274       -1.0513016877       -7.3722396642
 H        -1.4551849186       -0.8583489353       -8.1219601545
 H        -3.0226721349       -0.9934087790       -7.3619856824
 H        -1.4757412849       -1.6447382123       -6.6895377013
 H        -2.6719938455        2.6199561496       -6.9203432144
 H        -1.9721447826        1.8727778141       -8.3821341522
 H        -3.5298697112        1.2544356846       -7.6709747893
 H         2.8586819954        0.2600109264       -6.8395868605
 H         2.2371728471        0.4988971113       -5.1701254296
 H         2.8920938709       -3.5312680394       -2.3732220326
 H         1.9032378322       -2.5354539718       -1.2068846214
 H         4.8181201425       -2.9370025820       -5.0000528696
 H         3.4539245127       -3.8973944692       -4.3743145715
 H         4.6101637948       -3.2416509369       -3.3026496734
 H         3.6022982126        0.4689861734       -3.7365229548
 H         4.3307771473       -0.4485624296       -2.5785044800
 H         5.0282729331       -0.2655419983       -4.1371867483
 H         1.4488355083       -4.8727991977       -2.9517395195
 H         0.2768181038       -3.5401764023       -3.3305108038
 H         0.4145629017       -7.5947796948        1.3087076814
 H         1.4672776465       -8.2092754680        0.1084763632
 H        -1.3115421749       -6.9057105019        0.6947639720
 H        -2.2766235654       -5.9052897755       -0.3529036501
 H        -1.4049051834       -5.0683663788        0.7945153006
 H        -0.7782039489       -7.8347031804       -1.7057840345
 H        -0.9754059157       -6.5878617965       -2.7717936073
 H         0.6234962805       -7.0472930108       -2.5630660789
 H         3.4801965674       -7.6733877171        1.3951497445
 H         2.7545660851       -6.3392794454        2.1672273481
 H         3.4461308781      -12.4164076599        2.6571197413
 H         3.1843942636      -12.2196828518        0.9288421927
 H         4.6228465639      -11.6505024962        1.7551714892
 H         5.1816428496       -8.4484552648        4.0065529953
 H         5.0491547477       -8.4582036114        2.1892935144
 H         5.5253271248       -9.9358756865        3.0199527330
 H         2.2950175604       -9.3956010256        5.1839717598
 H         2.5122139944      -11.1820023031        4.5784083932
 H         3.8495204771      -10.4884705313        5.2692587007
 Na       -1.1984158361       -1.0765746229       -2.1610887367
