155

 C        -6.3638203433       -0.0667507115        4.5532838929
 C        -5.5256543890        1.0004420027        4.0251075479
 C        -6.0368527301        2.6401157401        4.1779880535
 C        -4.8181395002        3.4854726463        3.9248114966
 C        -3.5751909376        3.5079934318        4.9337844045
 C        -7.1472849791        2.9903300961        3.1493857262
 C        -6.4576649249        2.9661497841        5.6249495641
 O        -4.4652028663        0.6581151083        3.5496286362
 O        -4.7768702983        4.2352384417        2.9646869919
 C        -2.8336110997        4.8798682279        4.6773751605
 C        -1.5893907025        5.1006886410        5.5655602233
 C        -0.6300749949        6.3548189557        5.2535097089
 C        -0.2991134621        6.3434513443        3.7777893351
 C         1.0299038237        5.5774755898        3.4316212569
 O        -1.3579420533        4.3735097439        6.4788528449
 O        -1.1146041803        6.7590298339        3.0046826837
 C        -1.4499327955        7.6024319763        5.6251265967
 C         0.5214570463        6.2094075517        6.2011161064
 C         1.4063174048        5.4860130733        2.0095403363
 C         2.0764622048        4.1599777872        1.6640704381
 C         1.7246610858        3.6120523212        0.2898447011
 C         0.3775113866        2.7520554983        0.3855759673
 C         0.1849674110        1.6068123664        1.4703288628
 C         1.5322029980        4.6700475103       -0.8152801935
 C         2.8235902507        2.6385790211       -0.1754321131
 O         2.8063786155        3.5644408306        2.4625402224
 O        -0.5347533070        3.0584418326       -0.3635918985
 C        -1.2520852604        1.0929625095        1.3867437952
 C        -1.4252690343        0.5463162694       -0.0390478126
 C        -2.7615411263        0.6193226628       -0.7466060237
 C        -2.6677927906        0.5765063060       -2.2636082338
 C        -2.0382858232        1.7126600189       -3.1359760385
 O        -0.4803856710       -0.0387778066       -0.6232042219
 O        -3.3021731271       -0.2464558131       -2.9143642180
 C        -3.5527936721       -0.6879287790       -0.1374806468
 C        -3.5499934322        1.9183343884       -0.3835140532
 C        -2.2403102429        1.5621342910       -4.6820135804
 C        -1.5021618857        0.4321685385       -5.4150078072
 C        -1.2287014981        0.5385547993       -7.0446567233
 C         0.3617504128        0.8779627579       -7.0059785170
 C         1.3195240985       -0.1802668458       -6.7438987046
 C        -1.4206788700       -0.8412104473       -7.7413135479
 C        -2.0271414477        1.5709411556       -7.8104756953
 O        -0.9192735223       -0.4769250155       -4.8110551821
 O         0.7197813957        2.0378688931       -7.1863712401
 C         2.5268384473        0.3157006082       -5.9371982407
 C         3.3876133926       -0.9122874581       -5.4985587249
 C         3.9987862740       -0.8940904027       -3.9651011318
 C         2.7266390645       -1.3234302191       -3.1765078352
 C         2.5976835194       -2.6755428995       -2.4675978259
 O         3.4381412445       -1.8935249764       -6.2462984036
 O         1.7761999292       -0.5339544077       -3.2618787714
 C         4.9732361102       -2.1021443585       -4.0594391457
 C         4.6086061190        0.4663226940       -3.5677040831
 C         1.4575348907       -3.5144451178       -3.0664940088
 C         0.3089632362       -3.9143087167       -2.1862162839
 C         0.2650295826       -5.3336875884       -1.5572477395
 C         1.3551313976       -5.4237944437       -0.3864965936
 C         1.0729517661       -6.4097720554        0.6988288517
 C        -1.1542612756       -5.6920825587       -0.9954861652
 C         0.5711315628       -6.3883134810       -2.6432939088
 O        -0.5682539993       -3.1617387740       -1.9036560704
 O         2.3967885890       -4.7356382493       -0.4611003791
 C         2.1862035553       -6.4460453859        1.8411459088
 C         1.6477101443       -7.3055701205        3.0051658658
 C         2.5171394770       -8.6358711593        3.3807258915
 C         2.7417075112       -9.3826169528        2.0583407888
 C         3.5149014275      -10.6204416418        2.1168999324
 O         0.6599472134       -6.9846402086        3.6593920662
 O         2.1953645772       -9.0483771116        1.0344634780
 C         3.8181313454       -8.1925027218        3.9960106728
 C         1.6310321345       -9.5371441052        4.3312987101
 H        -7.2211613502       -0.2145637109        3.8602877002
 H        -5.6687075850       -0.9763849003        4.5214878284
 H        -6.8415030037        0.0382513499        5.5723338016
 H        -3.8081889214        3.6505582148        6.0392630187
 H        -2.8464224906        2.7100850116        5.0115429023
 H        -8.0845197239        2.4738995172        3.4566762619
 H        -6.8294100051        2.6440924290        2.1499064671
 H        -7.2867248460        4.0237409906        2.9900331546
 H        -6.9598915483        3.9654543497        5.6265553886
 H        -7.2081919243        2.2385143919        5.8912625004
 H        -5.6866091014        3.0348267625        6.3341688886
 H        -2.4745540453        4.9865603443        3.6670257347
 H        -3.5374019530        5.6933542540        4.8425310523
 H         1.7744950558        6.0746352033        3.9338379748
 H         1.0841107765        4.6191523548        3.9783549795
 H        -2.3827865535        7.8051087421        4.9566811336
 H        -0.8037930702        8.5005509491        5.6217191691
 H        -1.8806091457        7.4782984847        6.5812900451
 H         0.5673196542        5.2708599148        6.7302436059
 H         1.4095423051        6.6646203177        5.7822652555
 H         0.3726856215        6.9490065315        6.9966692915
 H         2.1465867401        6.2633372120        1.7499823130
 H         0.4994807298        5.7186123888        1.4472946856
 H         0.8571241833        0.7071590962        1.1267587863
 H         0.6044945759        2.0038789894        2.4142341751
 H         1.8069803221        4.3091597534       -1.7646646406
 H         2.1043279013        5.5176275282       -0.6304654282
 H         0.5493761010        5.0960746876       -0.9119341923
 H         3.6087779554        3.3109590230       -0.6084303560
 H         3.1230411203        1.9047391530        0.6019612947
 H         2.4307900492        2.1240574798       -1.0601956039
 H        -1.5837945159        0.2767136591        2.1303921710
 H        -1.9888510180        1.9562957646        1.5968176984
 H        -2.4977620381        2.6935711022       -2.8892866491
 H        -1.0108261618        1.9242959985       -2.9554441355
 H        -2.9179214392       -1.5554721999       -0.1043121747
 H        -4.2816086872       -0.7438574199       -0.9432496016
 H        -3.9922710703       -0.4116677208        0.8069669332
 H        -3.0572005880        2.7942514907       -0.8255951240
 H        -4.5426653216        1.6837682509       -0.6813023623
 H        -3.6127788984        2.0583950990        0.6267789380
 H        -1.7982641668        2.5337124705       -5.0135722610
 H        -3.3355107183        1.5254149158       -4.9386943900
 H         0.7986466871       -1.0595553898       -6.2609167051
 H         1.5433597012       -0.5901970821       -7.7896385766
 H        -1.0053076369       -0.7578307271       -8.7355193204
 H        -2.4871473706       -0.9676048195       -7.7777587490
 H        -0.9962371732       -1.7837098904       -7.3590283343
 H        -1.6734570646        2.5465560982       -7.4304933777
 H        -1.8477093722        1.5330362630       -8.8939126753
 H        -3.0894046300        1.5828675896       -7.6094782816
 H         3.0599209301        0.9096501485       -6.6892606448
 H         2.2762326538        0.8109321460       -5.0787478385
 H         3.5464442361       -3.1947364558       -2.4565012978
 H         2.4686504045       -2.5676715875       -1.3759518144
 H         5.6853511181       -1.8067665212       -4.7756670929
 H         4.5813757178       -2.9961087354       -4.4158464236
 H         5.5181133635       -2.4336945044       -3.1597359467
 H         3.9045115265        1.2604271852       -3.6040272038
 H         4.9674600932        0.3669245226       -2.5409445635
 H         5.3817483022        0.7089134013       -4.2632353396
 H         1.8365810946       -4.4900124275       -3.4431450220
 H         1.0110029212       -2.9094141682       -3.9235698332
 H         0.2297364183       -6.2322989445        1.3084847445
 H         1.0460545079       -7.4565001520        0.2768872410
 H        -1.3262731182       -6.7575798603       -1.0866995408
 H        -1.9268904364       -5.2167993328       -1.6129390833
 H        -1.3844135255       -5.1975509243       -0.0716824207
 H         0.2591157948       -7.3135444699       -2.2267233138
 H        -0.1498646279       -6.2177985583       -3.5124839439
 H         1.6056687108       -6.3535127177       -2.9388214051
 H         3.1178796765       -6.7291465989        1.3543112258
 H         2.3078883197       -5.4286017352        2.2826482242
 H         4.3242071191      -10.5850801896        1.4066850126
 H         3.8755605193      -10.8241496842        3.0592035268
 H         2.8137779507      -11.3313821149        1.7769597036
 H         3.5310600559       -7.6220847834        4.9177281725
 H         4.4089629839       -7.5627081122        3.2812777073
 H         4.3983293566       -9.0523946132        4.4227688556
 H         2.0838374697       -9.9576191669        5.2217920271
 H         0.8790329058       -8.9761577585        4.8668999735
 H         1.1673937581      -10.3222926969        3.7769858681
 Na       -0.6413918869       -1.0092991801       -2.6826922847
