155

 C        -3.9368666402       -1.9115427602        4.7496066874
 C        -4.5321514899       -1.0897501136        3.5195827552
 C        -5.7029041662        0.1300381814        3.5464120293
 C        -4.7741335692        1.4759560586        3.3895191958
 C        -4.0274305473        2.0457291437        4.6720398781
 C        -6.6738624999        0.0094405277        2.3352388932
 C        -6.5242128382        0.1629722552        4.8938349765
 O        -4.1935631485       -1.2302007174        2.4258923277
 O        -4.6996605773        2.0465584557        2.3529878228
 C        -4.0716852159        3.5437627968        4.8907671104
 C        -2.6548648443        4.1125880199        5.1420010919
 C        -2.3985479383        5.4555059946        5.7488678106
 C        -1.5596015850        6.2638465087        4.6471406857
 C        -0.1133576429        5.8217690844        4.3425194304
 O        -1.6914313174        3.4828612159        4.7484425716
 O        -2.2812535981        6.7176800473        3.7789631602
 C        -3.6062190811        6.2781184266        6.0350638343
 C        -1.5633007847        5.1620670545        7.0224892118
 C         0.1933661162        5.6164151853        2.8007684026
 C         1.3904991721        4.7259845485        2.7468350847
 C         1.4119291061        3.9123753171        1.3325512738
 C         0.0044915587        3.2242216738        1.0116834387
 C        -0.5198669905        2.0102928874        1.8691008649
 C         1.5728051436        5.0646081766        0.3091739431
 C         2.6027094088        2.9619023979        1.1987397969
 O         2.2641150447        4.5957670434        3.5689965023
 O        -0.5982398983        3.5903996707        0.0195646426
 C        -1.6887982850        1.3094547958        1.2936954202
 C        -1.5512117374        0.7679895358       -0.1681460493
 C        -2.8482238722        0.9461445849       -1.0440612368
 C        -2.4403787463        0.5794570774       -2.5796212727
 C        -1.9509622116        1.7507500174       -3.4281078525
 O        -0.5102726644        0.2587408827       -0.5020215402
 O        -2.4969579680       -0.4661117497       -3.1318725298
 C        -3.9863896074        0.0207967155       -0.4948652873
 C        -3.4084682547        2.3673022259       -0.9363648492
 C        -2.0588279162        1.5219758083       -4.9166655614
 C        -0.9520155122        0.8005881816       -5.5415513326
 C        -0.7685826387        0.7757907451       -7.0660679898
 C         0.7353580865        1.4325239288       -7.3649583036
 C         2.0482992830        0.6858343367       -6.9493994513
 C        -1.0912139253       -0.6987985328       -7.3705405022
 C        -1.7958062337        1.5571446537       -7.8660794629
 O        -0.0558990580        0.2139396756       -4.9358020692
 O         0.5724457212        2.4957070036       -7.8956162613
 C         2.8288898594        1.2845711031       -5.7991612572
 C         3.8707837534        0.0933618248       -5.4256936909
 C         4.4515723967        0.0651348344       -3.9281956160
 C         3.1395572161       -0.3872162322       -3.0531532842
 C         3.2024465916       -1.5268020555       -2.0170851597
 O         4.1755254491       -0.7684362905       -6.2267079586
 O         2.2065776768        0.3693258900       -3.1121146552
 C         5.6632079956       -0.8523469967       -3.7381567353
 C         4.7241544341        1.5635453871       -3.4936357492
 C         2.9229646557       -2.7831020895       -2.8372467062
 C         1.6295713919       -3.4609027074       -2.5824388441
 C         1.4701821325       -4.9766426135       -2.3488935616
 C         2.0193267976       -5.2443171089       -0.8239189468
 C         1.1441833250       -5.5899429427        0.3687511900
 C        -0.0220984267       -5.3747955776       -2.3961967568
 C         2.3292985229       -5.8210903101       -3.4236186063
 O         0.6676187342       -2.7190700929       -2.3699509664
 O         3.2276689886       -5.1975370476       -0.6466330938
 C         1.8371336969       -6.4350441381        1.4224720623
 C         0.8876158331       -7.0378571405        2.4764269517
 C         1.5114269692       -7.9532201338        3.5869486485
 C         2.1908586582       -9.2165731699        2.8868893561
 C         2.9525484857      -10.2545723028        3.7970518398
 O        -0.3045526905       -6.9072922921        2.2681923466
 O         2.0968666870       -9.3939099233        1.6952164400
 C         2.5315015134       -7.1215456964        4.5006954878
 C         0.2314054442       -8.5217923311        4.4167154833
 H        -4.7362600495       -2.2256509321        5.4649577876
 H        -3.6316497320       -2.8881072464        4.2864635232
 H        -3.1175594090       -1.4660390069        5.3394371322
 H        -4.3176207709        1.4598153273        5.5644529377
 H        -2.9465355700        1.7615410350        4.5054221024
 H        -7.0056959607       -1.0406980626        2.2659872479
 H        -6.0656835450        0.0728877907        1.4454044510
 H        -7.5467177374        0.6600586217        2.4419391507
 H        -6.8638749136        1.0642005223        5.2865052191
 H        -7.3760496302       -0.5277816624        4.7660389622
 H        -5.8747698018       -0.2426160903        5.7375817060
 H        -4.4628349667        4.0945244638        4.0670910612
 H        -4.6848966509        3.7440472389        5.8568685680
 H         0.4733641628        6.6022719803        4.8315829661
 H         0.0979425633        4.8740035858        4.9241895921
 H        -3.8136794702        6.8992866251        5.2162518087
 H        -3.4548826432        6.8956930523        6.9736975889
 H        -4.4784514171        5.6082039516        6.2756452670
 H        -0.7613248095        4.5456058622        6.7518931509
 H        -1.3777323251        6.0421708354        7.6372335240
 H        -2.1076125456        4.3969848364        7.5982520888
 H         0.4466131843        6.5541998777        2.2999074783
 H        -0.6952755398        5.2546442437        2.2602679939
 H         0.2186520971        1.3158109442        2.1968744084
 H        -0.8018604166        2.5215144181        2.7402961107
 H         1.4799366384        4.6732919675       -0.6587354964
 H         2.5638296529        5.5198790089        0.4148220240
 H         0.7351861656        5.6744630433        0.4806129218
 H         3.6489511503        3.3938924314        0.9889220344
 H         2.7321300747        2.5295341515        2.1871319863
 H         2.4787372629        2.1535656971        0.4346569938
 H        -1.9984907302        0.5729737578        1.9443494689
 H        -2.4957264712        2.0127382501        1.2990686145
 H        -2.6010760594        2.6933286721       -3.3012308284
 H        -1.0291221430        2.0603545632       -2.9202698124
 H        -3.6680376617       -1.0361402542       -0.5341481242
 H        -4.8726161097        0.1433125555       -1.1288562609
 H        -4.2811142009        0.3230501108        0.5223506628
 H        -2.7367195986        3.1228091212       -1.0921199245
 H        -4.1219365620        2.6145660467       -1.7069622546
 H        -3.8612624547        2.5201592864        0.0471260837
 H        -2.0575074889        2.5258019059       -5.3813412784
 H        -2.9676819126        0.9504859662       -5.0887375218
 H         1.6223920905       -0.2540805732       -6.5676256237
 H         2.7014168960        0.5048349078       -7.7694271171
 H        -1.5066227198       -0.8892527469       -8.4133569737
 H        -1.9099921335       -1.0615456782       -6.8055690758
 H        -0.2217552769       -1.2894998230       -7.1559095147
 H        -1.9175032327        2.6522232568       -7.7226885254
 H        -1.5379263591        1.3588713034       -8.9169868320
 H        -2.7504818462        1.1250535873       -7.7034828678
 H         3.4224235941        2.1835554650       -6.2166002239
 H         2.2735708844        1.5049568750       -4.8824544400
 H         4.1625968459       -1.3861474017       -1.5097976208
 H         2.3965562500       -1.3559613477       -1.2857524110
 H         6.5016235808       -0.5128718646       -4.3483605498
 H         5.4308939256       -1.8795949362       -4.0935935987
 H         5.9166987816       -0.9157998217       -2.6784708044
 H         3.8119572606        2.2057113120       -3.4204750278
 H         5.2260890156        1.4479737010       -2.5013997699
 H         5.4763475906        2.0720259639       -4.1119032896
 H         3.7955414082       -3.4498048603       -2.8844104172
 H         2.8827327798       -2.3648958706       -3.8849919684
 H         0.9652850823       -4.5776808599        0.7924856142
 H         0.1902000755       -6.1143350800        0.1599510270
 H        -0.0757931337       -6.3759984235       -1.9924952324
 H        -0.3768987081       -5.2520089938       -3.4262942451
 H        -0.6806816866       -4.8695829153       -1.6772153855
 H         2.1351765350       -6.8971939937       -3.3808459405
 H         2.0450387393       -5.5582601249       -4.4131878470
 H         3.4053741071       -5.6952334897       -3.4276008234
 H         2.4470614646       -7.2528846261        1.0264005787
 H         2.3967666134       -5.7142394738        1.9437092429
 H         2.9468457388      -10.0270293227        4.8324442579
 H         2.4806771141      -11.1860020480        3.5604429450
 H         3.9393906975      -10.3615544816        3.4789526000
 H         2.0198307971       -6.3751085322        5.1507299370
 H         3.2381192525       -6.5790471520        3.9304255054
 H         3.1208299960       -7.8045175269        5.1735204029
 H        -0.3442675132       -7.7325818866        4.6947345552
 H        -0.3004127914       -9.2343938054        3.8537768623
 H         0.6749157478       -9.0887246157        5.2146929242
 Na        0.1568915749       -0.5002442044       -2.7359987303
