155

 C        -3.5375008462       -1.8497983048        4.5977763239
 C        -4.1561911272       -1.2643434367        3.4057436286
 C        -5.6168766759       -0.5541507507        3.4108727740
 C        -5.1728903921        0.9841425798        3.2327783522
 C        -4.3083019973        1.6090242825        4.3738564052
 C        -6.3673909597       -0.9981680644        2.1058540898
 C        -6.4224264933       -0.6348955658        4.6665320955
 O        -3.5365818405       -1.2767555697        2.3287499012
 O        -5.5665967393        1.5974981996        2.3258155117
 C        -3.8214648758        3.0589077393        4.0795827512
 C        -2.7383380744        3.4219898349        5.0666858551
 C        -2.7209127784        4.8994718381        5.8150202791
 C        -2.0605401882        5.9937493173        4.6330051940
 C        -0.5592530670        5.7909985383        4.2462707744
 O        -1.9570818731        2.5909790167        5.5023394703
 O        -2.7264231263        6.8076747191        4.0504428519
 C        -4.1493053838        5.5567669439        6.1607112034
 C        -1.8298138742        5.0196153763        7.0456549602
 C        -0.3185003391        5.6008898798        2.6917093914
 C         1.0281035518        4.7021809261        2.7364225108
 C         1.4521883910        4.0969080658        1.3079665020
 C         0.1257728661        3.2046812636        0.9847065766
 C        -0.4229294792        2.2647279018        2.0412481678
 C         1.6123554406        5.1171987183        0.1958260006
 C         2.7393682409        3.1245609105        1.4591511636
 O         1.6252351427        4.4011879890        3.7304579683
 O        -0.4506515640        3.2788352368       -0.1025441719
 C        -1.7053437219        1.6634651141        1.4008544604
 C        -1.4729031335        1.2716040484       -0.0691001727
 C        -2.7220712283        1.2163692450       -1.0691075656
 C        -2.2999964718        0.7614720619       -2.5303871105
 C        -1.9345155070        1.8559670641       -3.5548708445
 O        -0.4382082459        0.6226104801       -0.3539632270
 O        -2.1830556091       -0.4734798898       -2.7541785970
 C        -3.6536225896        0.0476236059       -0.6255836993
 C        -3.3795393034        2.6133355917       -1.0994527998
 C        -2.0295118730        1.2979712993       -4.9497344322
 C        -0.7961310826        0.6047664300       -5.4721848414
 C        -0.6470923594        0.6750457931       -7.0256547818
 C         0.6586218895        1.4224590834       -7.3129243699
 C         2.1215606632        0.8579677630       -7.1966474273
 C        -0.6646190029       -0.8124398276       -7.4913420938
 C        -1.7049920205        1.5659508184       -7.7426359818
 O        -0.0903515947       -0.1582654056       -4.8604554832
 O         0.5702054411        2.5649331946       -7.7089937642
 C         2.7220700820        1.1742279861       -5.7839063037
 C         4.0059124646        0.2831104462       -5.4391927603
 C         4.5373291114        0.3158999500       -3.9250885141
 C         3.2945043048        0.0449166105       -3.0697496478
 C         3.1980100491       -1.1210466532       -2.0403592510
 O         4.7676714465        0.0407601840       -6.3330625129
 O         2.3901312544        0.8883101053       -3.0876493565
 C         5.6944117073       -0.6871805365       -3.7524029875
 C         5.1033025948        1.7018046306       -3.7855630208
 C         2.8778128714       -2.5115652390       -2.6811845832
 C         1.5343305756       -3.0210618812       -2.3000907941
 C         1.4181632934       -4.5524630076       -2.2460696427
 C         2.2683561912       -5.1587394961       -0.9617212782
 C         1.5095965954       -5.7079864751        0.2038613525
 C        -0.1239765931       -4.9148998502       -2.3523894456
 C         2.1711423640       -5.1706558907       -3.4805434914
 O         0.6318055995       -2.3758088497       -1.7927234044
 O         3.4945597172       -5.1474515916       -1.0379294325
 C         2.1042942672       -6.6641509233        1.3279821690
 C         0.9705277514       -6.9518622743        2.2926623795
 C         1.2401256840       -7.8509805820        3.5157923745
 C         2.1419413790       -9.1505852154        3.0585420621
 C         2.3678212101      -10.2733739766        3.9908050433
 O        -0.2376818155       -6.6279150346        2.0960536541
 O         2.5132599196       -9.2821498539        1.9286437141
 C         1.7898091531       -7.1632037391        4.8049407021
 C        -0.1437638760       -8.5834669912        3.9408279137
 H        -3.1959422358       -2.9392181825        4.4347035609
 H        -2.6779087210       -1.2509666752        4.9659086575
 H        -4.1708752693       -1.8435427968        5.5361398014
 H        -4.9327785944        1.7217201811        5.2592525669
 H        -3.5564386078        0.9228935595        4.7231239965
 H        -6.7087071894       -2.0185507179        2.3999423292
 H        -5.5814035982       -0.9804492057        1.2990335481
 H        -7.1576631606       -0.3755031401        1.7208081553
 H        -7.1929406234        0.1982598869        4.7200083164
 H        -7.0031789930       -1.5610507352        4.8545360655
 H        -5.8120430767       -0.4873915895        5.5471323115
 H        -3.3700024918        2.9926508276        3.0376495172
 H        -4.5232454165        3.8226497377        4.0049422034
 H        -0.0035559320        6.6641181246        4.5136638796
 H        -0.2715294127        4.9041477650        4.7679056229
 H        -4.1351398119        6.6121837899        5.7450008403
 H        -4.4212847066        5.6377791273        7.2388482330
 H        -4.9711946512        5.0938998537        5.6259216120
 H        -0.7608494169        4.9430811491        6.8209277278
 H        -1.9629302164        6.0348198851        7.4948461334
 H        -2.0773411141        4.2938018155        7.8293911758
 H        -0.1440108172        6.4532898221        1.9946134364
 H        -1.2130157729        5.0545544995        2.2891270620
 H         0.3628878512        1.4691314609        2.2015612600
 H        -0.6326138420        2.7297543737        3.0245164450
 H         1.5466093698        4.6514708161       -0.7680374862
 H         2.4867901696        5.6421960439        0.4103716264
 H         0.8051525247        5.7983564231        0.3221579507
 H         2.5728773013        2.0329881207        1.5404140639
 H         3.3647171725        3.2196164896        0.5407103443
 H         3.4382685637        3.5371878200        2.1626342206
 H        -1.9418555138        0.7668018126        2.0254952335
 H        -2.5386320219        2.3568998150        1.5073385076
 H        -2.6911557336        2.5860102241       -3.4545634826
 H        -0.9936361169        2.3293778403       -3.2112304934
 H        -3.1960001810       -0.8842601122       -0.4104244374
 H        -4.5574066941        0.0440542393       -1.2167803777
 H        -3.9979459875        0.3903657861        0.3465786067
 H        -2.6179252494        3.3790043707       -1.3851977336
 H        -4.1800803144        2.8221080398       -1.7961635517
 H        -3.7848855379        2.8898957571       -0.1690405072
 H        -2.2086547751        2.0643365557       -5.6666559704
 H        -2.8163586716        0.5065560161       -4.9977009372
 H         2.0953364091       -0.2409393349       -7.6031230600
 H         2.7146655187        1.5615512441       -7.8498606925
 H         0.0079277218       -1.3338526980       -6.8297326799
 H        -0.3557971289       -0.9030353017       -8.5469696415
 H        -1.6920718321       -1.2115951397       -7.4886630667
 H        -1.7313745749        2.6240491496       -7.3879362679
 H        -1.5080527467        1.7312909651       -8.8229296724
 H        -2.6929679793        1.1734550896       -7.6302094725
 H         3.0235848229        2.2041756490       -5.8483856565
 H         1.9825902646        1.0364367778       -4.9423434702
 H         4.1653329491       -1.1583405069       -1.5231253119
 H         2.4222455940       -0.8725539082       -1.2913470051
 H         6.6386240779       -0.3373411256       -4.0576065588
 H         5.4295582652       -1.6710963488       -3.9754890716
 H         5.8020230703       -0.6420384854       -2.6495221779
 H         4.2448821906        2.3780291724       -3.6715675447
 H         5.6959532739        1.8497885959       -2.8748037764
 H         5.6107877914        1.9824207233       -4.7150842441
 H         3.5890993067       -3.2105179521       -2.2314299887
 H         3.1551959825       -2.5133041524       -3.7216302571
 H         1.0887533411       -4.7660153654        0.6578468466
 H         0.6948768979       -6.3158079873       -0.2093244152
 H        -0.3988096882       -5.9691909358       -2.3466000582
 H        -0.4386247955       -4.7002674293       -3.3828192721
 H        -0.7277677942       -4.3153329887       -1.6796181422
 H         2.4847997741       -6.1712701655       -3.2546539524
 H         1.5966368731       -5.2607336555       -4.4788100141
 H         3.0885894119       -4.6329604906       -3.6725746083
 H         2.1339426423       -7.6659895796        0.8662710536
 H         3.0842398428       -6.5455636351        1.8052718441
 H         1.5350062889      -10.8976504868        3.9067611536
 H         3.2711381080      -10.6898998713        3.6329529932
 H         2.3942625373      -10.0131871682        5.0109108533
 H         1.0001791772       -6.6986032350        5.4515659346
 H         2.5892939102       -6.4244164225        4.7455262222
 H         2.1672523163       -7.9144474919        5.5454707655
 H        -0.8564509821       -7.8824478802        4.0905845036
 H        -0.4569527801       -9.2543868768        3.2175383437
 H         0.0046202402       -8.9941532209        4.9187581515
 Na        0.5336898721       -0.1384443635       -2.4348512642
