155

 C        -3.3451574814       -2.2039493781        4.5372096803
 C        -3.9135937747       -1.3929907306        3.3882452348
 C        -5.3442264057       -0.7135762433        3.4010341623
 C        -5.1964895028        0.8224157794        3.1033841407
 C        -4.5445594091        1.5276317662        4.2920340290
 C        -6.0654784374       -1.3376935671        2.1457512205
 C        -6.1589060779       -1.0148149071        4.6542182208
 O        -3.1390667327       -1.0490358326        2.5397289203
 O        -5.6598383217        1.2263194394        2.0807581947
 C        -3.9113449075        2.8498803398        3.9942024431
 C        -3.1449788344        3.2121515217        5.2209812066
 C        -3.1048143486        4.7360252527        5.9043872747
 C        -2.3566131121        5.5371580638        4.6251759912
 C        -0.8283522009        5.5862651838        4.4214586492
 O        -2.3665388600        2.4010221084        5.7259713390
 O        -3.1481823719        6.1049222242        3.8898275745
 C        -4.4518949565        5.4431094318        6.1207430961
 C        -2.2412448204        4.7728344408        7.2086851046
 C        -0.3734386419        5.8095507926        2.9392265207
 C         0.8958614013        4.8444897649        2.8787232515
 C         1.3015754991        4.2460612729        1.4612547853
 C         0.1745070315        3.3588313281        0.8844386576
 C        -0.2447902201        2.0897086384        1.8072742432
 C         1.5955502254        5.5601522324        0.5228248722
 C         2.4956493416        3.3553462777        1.3307891817
 O         1.5942297880        4.5729113719        3.8126025909
 O        -0.3511865684        3.5963312633       -0.1996896495
 C        -1.4692945223        1.3073930288        1.3984681951
 C        -1.4545507741        0.9503753014       -0.1094374791
 C        -2.7369127418        1.1951545964       -1.0118786035
 C        -2.4056795307        0.8098370711       -2.5557915948
 C        -2.0429203804        1.9750651200       -3.5397758376
 O        -0.5262474903        0.4598193573       -0.6600238388
 O        -2.2784704856       -0.3782385336       -2.8212814455
 C        -3.7747374907        0.2240975932       -0.5524163403
 C        -3.3109318099        2.6570471311       -0.7491583898
 C        -1.9816459157        1.6731567391       -5.1055284460
 C        -0.7613659913        0.6972609622       -5.5507963297
 C        -0.5317451774        0.4835829522       -7.1499353234
 C         0.7563953207        1.4265086172       -7.2539883732
 C         2.1382466329        0.7605726158       -7.0317667844
 C        -0.3151985854       -1.0608432621       -7.3534525197
 C        -1.5309298353        1.0927275576       -8.0804583960
 O         0.1800234413        0.2806235777       -4.9335045474
 O         0.6522677882        2.6481320956       -7.4106076995
 C         2.6940788587        1.2673290534       -5.6546943234
 C         4.0502624077        0.5778827423       -5.3538352881
 C         4.6672574631        0.4825488368       -3.8931902304
 C         3.4781153695        0.0807493457       -2.8455613648
 C         3.6140481277       -1.1623007484       -2.0337245272
 O         4.5542649825       -0.1722781145       -6.1894559310
 O         2.5134757546        0.8279155699       -2.8513142672
 C         5.9791668908       -0.2215958399       -3.7635371802
 C         4.9900806791        2.0189011953       -3.6389543980
 C         3.2841423968       -2.5856734480       -2.6681310255
 C         1.8833546425       -2.9786703713       -2.2320283353
 C         1.4972565207       -4.4031897922       -2.2810578959
 C         2.1814714926       -5.0943025301       -0.9940875560
 C         1.1955326282       -5.7500480965        0.0332097370
 C         0.0412269463       -4.3860343424       -2.3507903441
 C         2.0546532728       -5.0517253959       -3.5473485871
 O         1.1359246441       -2.0837534071       -1.9281949150
 O         3.3672299113       -5.0412712441       -0.8123845970
 C         1.8206272245       -6.3871996692        1.2255251621
 C         0.6821376075       -6.8787531574        2.1446373972
 C         1.0754639166       -7.9219198084        3.2669485593
 C         2.1740455800       -9.1490242642        2.9678971244
 C         2.1795086398      -10.1769764139        4.1334174173
 O        -0.4861240274       -6.4761962872        2.0470667106
 O         2.9682223989       -9.1768301209        2.0571557531
 C         1.9071682271       -7.1643880558        4.3424974050
 C        -0.2810510899       -8.4317790131        3.7876037972
 H        -2.3118871568       -1.8762792011        4.7679102857
 H        -3.8683137824       -2.1251786798        5.4908675655
 H        -3.1614999613       -3.2653282003        4.3485662600
 H        -5.2917424886        1.7995797484        5.0780796107
 H        -3.9047488225        0.7403176402        4.7024081592
 H        -5.9299291474       -2.4069960014        2.3039627972
 H        -5.6086119881       -0.9173023305        1.2474708066
 H        -7.0549333844       -1.0347424585        2.0901895706
 H        -7.0972952247       -0.5393743769        4.4693891356
 H        -6.4391674183       -2.0069687583        4.9796017828
 H        -5.6902336666       -0.6790074438        5.5720749691
 H        -3.2258828624        2.7614585447        3.0986136762
 H        -4.6154357935        3.5983113964        3.6870676717
 H        -0.4044302873        6.3206554344        5.0889756862
 H        -0.3670211120        4.6518621626        4.6983215937
 H        -4.9857103521        5.4672474351        7.0477910675
 H        -5.1972839036        5.0057616996        5.3851287184
 H        -4.3084871242        6.4496106394        5.7871568153
 H        -1.4041432442        4.1403614691        7.2128255498
 H        -1.7125600572        5.7160527140        7.3609399991
 H        -2.9089503449        4.5987399142        8.0592898667
 H         0.0323109734        6.8088722070        2.7798082446
 H        -0.9395669975        5.4635551682        2.0599733020
 H         0.6216532485        1.4336527791        1.9542651394
 H        -0.4407395290        2.5471268811        2.7370961932
 H         1.9131345949        5.2099475549       -0.4555000713
 H         2.2693890578        6.2216919118        1.0925833674
 H         0.6895088186        6.1451158923        0.4139785545
 H         2.5177408224        2.6944249133        2.2979158380
 H         2.2974720068        2.5865231695        0.5536516106
 H         3.4789733867        3.7560248494        1.1371978004
 H        -1.6156805078        0.4065014093        1.9312213097
 H        -2.2763918672        1.9735378424        1.6192849144
 H        -2.7677800875        2.7845603075       -3.4719190606
 H        -0.9758674760        2.3148082761       -3.2552504376
 H        -3.6313603465       -0.7804539280       -0.9865622108
 H        -4.7536961480        0.5205217880       -1.0013305221
 H        -3.8408486968        0.0995984873        0.5656796871
 H        -2.6823119476        3.4470027196       -1.0433796381
 H        -4.2553400898        2.7948105890       -1.2523232612
 H        -3.5099954532        2.9129425478        0.2565067460
 H        -1.7836513993        2.5928902560       -5.6496125498
 H        -2.8946795651        1.2306529932       -5.5836980091
 H         2.3874100687       -0.3736819367       -7.1678726500
 H         2.6620760272        1.2201275974       -7.9121889549
 H         0.5432658498       -1.3811854107       -6.7476517530
 H        -0.3075874746       -1.2762362985       -8.4014402758
 H        -1.1375817682       -1.5868773305       -6.8645546776
 H        -1.5390079760        2.1883294297       -7.9019825713
 H        -1.3919685986        0.9313899013       -9.1466410222
 H        -2.4833975114        0.7475651309       -7.9464113941
 H         2.8716615303        2.3463126324       -5.6314687407
 H         2.0625366707        0.9138523307       -4.7979124141
 H         4.6297025207       -1.1104493836       -1.6156075477
 H         2.9192065083       -1.1153922069       -1.1634645771
 H         6.6898928222       -0.0105788030       -4.5863804823
 H         5.7884857825       -1.3285453615       -3.7444344413
 H         6.4381018479        0.0598261205       -2.7476442364
 H         4.1134096966        2.6214399951       -3.9245697396
 H         5.5047865733        2.3480049036       -2.7085471231
 H         5.7155359016        2.2943597788       -4.4089010609
 H         4.0730207658       -3.3120945874       -2.3252844004
 H         3.3437609961       -2.5703559725       -3.7885831600
 H         0.6027480226       -4.8357684566        0.3346896958
 H         0.5122153882       -6.3911226325       -0.5471832969
 H        -0.4618278820       -5.3681457577       -2.3074024561
 H        -0.2642315999       -4.0197681256       -3.3685768454
 H        -0.4380328437       -3.6022446358       -1.7457909457
 H         1.3864944221       -5.8084881181       -3.8273029535
 H         2.2220375285       -4.3229676848       -4.3758431123
 H         2.9573724642       -5.5427297029       -3.3033969542
 H         2.5171493036       -7.1730430289        0.9498599682
 H         2.4926342018       -5.7064518448        1.7293404388
 H         1.8902243584      -11.1319850958        3.7583233262
 H         3.1896773424      -10.2310694733        4.5178601110
 H         1.5089109165       -9.8474067703        4.8906191568
 H         1.7615183108       -6.0985255917        4.4247531162
 H         2.9226120386       -7.2212281598        4.2247044424
 H         1.8726210021       -7.6234873751        5.3250917717
 H        -0.9943966300       -7.6919434119        3.8983562351
 H        -0.6368935028       -9.1192134945        3.0299465928
 H        -0.1868028746       -8.8832370305        4.7696226925
 Na        0.4082246866       -0.2484539035       -2.6844593607
