155

 C        -2.9944653481       -3.4332865482        3.6324435499
 C        -3.3622658231       -2.0035597915        3.4882248960
 C        -4.8701943378       -1.5905718450        3.4056197708
 C        -5.0189964296       -0.1195148980        3.4966633149
 C        -5.0431381906        0.5905039656        4.9162681541
 C        -5.3839745557       -1.9340537269        1.9348424258
 C        -5.6223295388       -2.3132019951        4.6189855581
 O        -2.5146270121       -1.1942854190        3.2031673320
 O        -4.9547098861        0.5943489044        2.4727091636
 C        -4.9438457675        2.0792597281        4.5898550421
 C        -4.3710927268        2.8116356919        5.7638006223
 C        -4.0871118483        4.4100656308        5.7258683143
 C        -3.0423004132        4.5828131421        4.6072490651
 C        -1.5510651902        4.9520907227        4.9831931802
 O        -4.0772535960        2.1587145227        6.7598347844
 O        -3.4454610444        4.4497003934        3.4603041382
 C        -5.4752711105        5.0204534023        5.4676062437
 C        -3.6088015806        5.0253385616        7.0804857660
 C        -0.8659693310        5.5496772259        3.6650711027
 C         0.4774933051        4.9096656681        3.3928891592
 C         0.9147784858        4.9289527868        1.7512379543
 C        -0.0204489439        3.9410277395        1.0004244024
 C        -0.4918107044        2.7221098745        1.7606591915
 C         0.6457012081        6.2998070237        1.1224614464
 C         2.3699964731        4.5583523391        1.5169030468
 O         1.1548205876        4.4884539789        4.2909597418
 O        -0.6505012131        4.3089322059        0.0122199361
 C        -1.7642382150        2.1111715232        1.1713275458
 C        -1.5165422877        1.4374732531       -0.1533277462
 C        -2.5942910379        1.4956854233       -1.2445854487
 C        -1.8816436786        1.0895042010       -2.5969335853
 C        -1.0278319373        2.0826698174       -3.4766991519
 O        -0.3886695409        0.9530590280       -0.3803084583
 O        -2.0075017602       -0.0392863179       -3.0167707928
 C        -3.4464054299        0.2793895544       -0.7493786461
 C        -3.5024722050        2.7358482746       -1.4372693567
 C        -1.2764863382        1.9535076625       -4.9603726969
 C        -0.5750062833        0.7758087030       -5.6013583494
 C        -0.2703750770        0.7438720215       -7.1675915973
 C         1.1737814484        1.2827156663       -7.1915459837
 C         2.5459339284        0.4194771469       -6.9820486315
 C        -0.3692909939       -0.7152880434       -7.5791966472
 C        -1.2473569798        1.6088702881       -7.9196343897
 O         0.0000308422       -0.1145091379       -4.9184655175
 O         1.2705643026        2.4513440963       -7.3499443425
 C         3.5439084102        1.2198817117       -6.2014108904
 C         4.4103081591        0.2530340169       -5.2246367947
 C         4.7753091026        0.8612027850       -3.7840098789
 C         3.5695892219        0.3325222231       -2.7248394177
 C         3.8808326076       -0.8452806321       -1.7766766537
 O         4.4416903218       -0.8729452227       -5.6803053169
 O         2.5166525925        0.9253851514       -2.8979170020
 C         6.1701906570        0.2599936816       -3.3492250489
 C         4.9603239444        2.4010383128       -3.8215974461
 C         3.7021640699       -2.2617034150       -2.3855849538
 C         2.3202375766       -2.8705377780       -2.3509985672
 C         2.1949074448       -4.3686498565       -2.6794695574
 C         2.4417575499       -4.9394113559       -1.2034411747
 C         1.2780571941       -5.4737765253       -0.4014941957
 C         0.8006992199       -4.7519420243       -3.2243698276
 C         3.2882272957       -4.7879912431       -3.6941227710
 O         1.2077346191       -2.2960615193       -2.0942405912
 O         3.5561811618       -4.7505245009       -0.7973012408
 C         1.6094889292       -5.7295089398        1.0909524082
 C         0.5419227051       -6.8806102440        1.6471912436
 C         0.9049564737       -7.4605515021        3.0975669439
 C         1.9114073251       -8.7387663400        2.6585146494
 C         1.9092618341       -9.9479832727        3.6156551603
 O        -0.4160508592       -7.2821199679        1.0438995783
 O         2.6184024152       -8.6216649301        1.7118546353
 C         1.8753809240       -6.5986555636        3.8814317676
 C        -0.3600804275       -7.7292826525        3.8777327074
 H        -2.2720108337       -3.8253186503        2.8556443678
 H        -2.4898290302       -3.5339207064        4.6391207669
 H        -3.8148504417       -4.2182267162        3.6577842964
 H        -6.0144296612        0.2812416622        5.3196602062
 H        -4.2898748376        0.2378118818        5.5850594267
 H        -5.3966489734       -3.0245172259        1.8130347378
 H        -4.7827373185       -1.3711583480        1.2332914929
 H        -6.4114846462       -1.5040892536        1.8026781888
 H        -6.6008098911       -2.0141571807        4.9039926420
 H        -5.5976186801       -3.3716499630        4.2764651839
 H        -4.9814600818       -2.3425746720        5.5653971959
 H        -4.2699983568        2.1861947317        3.7863708271
 H        -5.9026128001        2.5974367696        4.3191602718
 H        -1.3552272699        5.6129899708        5.8669945357
 H        -0.9615520040        3.9727807834        5.0612741770
 H        -6.2221653173        4.4363761141        5.9856959893
 H        -5.8003294177        5.0859635026        4.4041742642
 H        -5.4726740642        6.0942047382        5.7819629362
 H        -2.7199871883        4.5059829605        7.5006896371
 H        -3.2698845976        6.0125587221        6.8244627037
 H        -4.2578732393        5.1721001934        7.9398473958
 H        -0.7621570916        6.6190934159        3.8080227486
 H        -1.3956311544        5.5269608270        2.6800462157
 H         0.2669336631        1.9034517895        2.0221089053
 H        -0.7367804275        3.0929774988        2.7494345779
 H         0.7258979178        6.1440836162        0.0886453692
 H         1.2664371234        7.1360467952        1.4697206950
 H        -0.3608437561        6.6138556786        1.1958627025
 H         2.4227007406        3.4878603735        1.4318061289
 H         2.7898805888        4.9425711736        0.5873695599
 H         2.9708302982        5.0569578543        2.3156566938
 H        -2.2492326979        1.4325767598        1.9075962760
 H        -2.4492171529        3.0325209496        1.1020772467
 H        -1.2977575671        3.1144033524       -3.1676840983
 H         0.0123811689        2.1048700917       -3.2121147308
 H        -2.7865216133       -0.3058880460       -0.1008653371
 H        -3.7417906446       -0.2998860788       -1.6043206820
 H        -4.3430757975        0.4040812475       -0.1592367111
 H        -2.8847685476        3.6267681067       -1.6527445107
 H        -4.0703034389        2.6181829113       -2.3465272124
 H        -4.1367158988        2.7143302065       -0.5546245974
 H        -0.8104947608        2.8638696377       -5.3586163123
 H        -2.3541146239        2.0430462056       -5.2416814288
 H         2.3817668925       -0.4823722726       -6.5851583793
 H         2.8598538309        0.3105041843       -7.9935061265
 H         0.0350738594       -0.8207096169       -8.6265243744
 H        -1.3437273684       -1.1141991431       -7.4915508904
 H         0.2065800780       -1.3494140069       -6.9144325690
 H        -1.1919718040        2.6746250050       -7.6762683270
 H        -1.0556653819        1.5426444705       -9.0031672731
 H        -2.3486178045        1.3077504713       -7.8706240380
 H         4.2860100395        1.7136094277       -6.8706664881
 H         3.0880055553        2.0936197795       -5.8101548332
 H         4.9157632917       -0.7216144784       -1.5043968581
 H         3.3434790039       -0.8218859790       -0.8182888905
 H         6.8775657570        0.5765877556       -4.1258487503
 H         6.1138540630       -0.8462713336       -3.2786092239
 H         6.5935940076        0.6595559043       -2.4693850023
 H         4.1416259798        3.0172867405       -4.2274314590
 H         5.0715089517        2.7926981138       -2.7892891081
 H         5.8423071849        2.6188832465       -4.4477737265
 H         4.2898154915       -2.9119118822       -1.7586741918
 H         3.9605805001       -2.3495007913       -3.4179734772
 H         0.4189841968       -4.7381901924       -0.5234004452
 H         1.0204550411       -6.3891090236       -0.9376903514
 H         0.7370770934       -5.8238218033       -3.4224921278
 H         0.6085593965       -4.3657575940       -4.2435890286
 H        -0.0216598033       -4.4100523820       -2.5563540690
 H         3.1836343129       -5.8940434207       -3.9133540759
 H         2.9352849160       -4.2102878328       -4.4932497911
 H         4.3182402777       -4.4655168333       -3.3731406563
 H         2.6569422697       -6.0752851744        1.3085744671
 H         1.2336113886       -4.9098825226        1.6431889451
 H         1.2237007243      -10.5969932030        3.1436589813
 H         2.8724297995      -10.3511982657        3.6139667459
 H         1.5324466280       -9.6609773070        4.5621933560
 H         1.3965860422       -5.6959576779        4.3390673026
 H         2.6755166401       -6.2503990207        3.1309341116
 H         2.4542930126       -6.9913093976        4.7509981539
 H        -1.1054139787       -6.9773778110        3.7198645961
 H        -0.7929387071       -8.6465226679        3.6152040451
 H        -0.2287533740       -7.7530417869        4.9609175840
 Na        0.5271311256        0.0146475116       -2.3825001064
