155

 C        -2.7438478897       -3.7835974517        3.1768224939
 C        -3.1261534898       -2.3068951235        3.4129526039
 C        -4.7371207304       -2.1288185335        3.4972148401
 C        -4.9424655317       -0.4763497553        3.5649783704
 C        -4.7629946080        0.2304900780        4.8902445848
 C        -5.2639242164       -2.4026778014        2.1315992952
 C        -5.3610543630       -3.0540790812        4.6296563048
 O        -2.4354119874       -1.3231015419        3.3895865102
 O        -5.0000182325        0.1351703582        2.5152177104
 C        -4.5718727879        1.7261474133        4.5572143671
 C        -4.5286685309        2.6545434431        5.7819464524
 C        -4.4114072691        4.2587230899        5.7216575285
 C        -3.1916315510        4.6312720906        4.7308686394
 C        -2.1316809251        5.5911649390        5.2078480088
 O        -4.5941132029        2.1217147328        6.8567136587
 O        -3.1982570027        4.1676917697        3.6205759030
 C        -5.8334384903        4.5537207490        5.1129566576
 C        -4.3601535259        4.7776176475        7.1446999652
 C        -1.2862207278        6.1045784366        4.0175364612
 C        -0.1284438844        5.1830187049        3.6010976243
 C         0.2813523511        5.2128929716        2.1143274939
 C        -0.5154959893        4.0671798969        1.3364166450
 C        -0.7443131958        2.7204324285        1.8731785336
 C         0.1070414544        6.5778861702        1.2896093743
 C         1.7574885135        4.6258567986        2.2009230195
 O         0.5135100323        4.4775711070        4.3591412780
 O        -0.6519197446        4.2801589510        0.1554203563
 C        -1.6793074250        1.7232901824        1.1045683045
 C        -1.3075708115        1.3663855639       -0.3104663511
 C        -2.5376426260        1.5003881103       -1.3276102777
 C        -2.0491290199        1.3737985090       -2.7755521678
 C        -1.3246205563        2.4602708412       -3.5312006488
 O        -0.1668424997        1.0960454714       -0.6540068419
 O        -2.1915036043        0.1997345207       -3.1911609286
 C        -3.4694140680        0.3645668476       -0.8371786696
 C        -3.1634915606        2.8196130912       -1.0037637087
 C        -1.2375349997        2.2295811143       -5.0075083390
 C        -0.2114188584        1.1798743987       -5.4228965980
 C         0.0579648265        0.8958599929       -6.9377081100
 C         1.4773522969        1.1819482540       -7.4381898038
 C         2.6828575446        0.3418498797       -7.0420893263
 C        -0.2041731685       -0.6580983163       -7.1588681601
 C        -0.8552069704        1.6884138570       -7.9014903803
 O         0.4098439672        0.5091413860       -4.6087925302
 O         1.6349082312        2.0441876027       -8.2629759156
 C         3.5238139602        1.0427347683       -5.8937082770
 C         4.3687995816        0.0913666879       -5.0509181815
 C         4.8463621374        0.7041806932       -3.5891868594
 C         3.4932233055        0.5321893211       -2.7323417051
 C         3.2365553250       -0.5448187197       -1.6958508990
 O         4.7161740349       -1.0425568769       -5.3054881629
 O         2.6356300699        1.4186211716       -2.9009398219
 C         6.0807205984       -0.0286327259       -3.0424267392
 C         5.2958201696        2.1719693965       -3.7231640785
 C         3.5395096396       -1.9380882303       -2.2473873087
 C         2.3186757759       -2.7667636747       -2.7674665431
 C         2.5328816752       -4.2587963773       -2.9855270739
 C         2.8332903359       -4.8285144890       -1.4735014192
 C         1.6709826729       -5.5817180913       -0.6279214302
 C         1.3662878180       -5.0356170208       -3.6275723803
 C         3.7475980752       -4.4319040561       -3.9060914706
 O         1.2235816749       -2.2796307510       -2.8455295527
 O         3.8729608779       -4.5242196304       -0.9608839289
 C         2.1034494458       -6.3870956604        0.5738399180
 C         0.7160341631       -6.6406755330        1.4788061176
 C         0.8614977999       -7.4164843380        2.8987160917
 C         1.8071836145       -8.6550511799        2.6881685778
 C         1.5646764879       -9.9534940603        3.5195258629
 O        -0.3013995763       -6.1839877869        1.1212243572
 O         2.8180125488       -8.4931813324        2.0315150937
 C         1.5134515795       -6.5850979701        4.0145794261
 C        -0.5279427639       -7.8136917924        3.3584442914
 H        -2.7739618294       -4.2919533839        4.1585717806
 H        -3.4182435489       -4.3675405184        2.4857457780
 H        -1.7359443254       -3.9044519756        2.7909786743
 H        -5.4956085806        0.0031860018        5.6319267391
 H        -3.7765751071       -0.1720158694        5.2002526136
 H        -5.2647600434       -3.5361414393        2.0822798788
 H        -4.5253151518       -2.0072836426        1.3659152418
 H        -6.2462628905       -2.0253810665        1.8929053545
 H        -6.3800678945       -2.7067982971        4.7420491808
 H        -5.4756749600       -4.1093148038        4.3067786782
 H        -4.7847962022       -2.9515621601        5.5783926154
 H        -3.5627871247        1.9281979058        4.0268580485
 H        -5.3125976151        2.1330491770        3.9006184982
 H        -2.6908938192        6.4741137587        5.5204101305
 H        -1.5657152835        5.0185484135        5.9242907597
 H        -6.6728699242        4.1456034480        5.6836158501
 H        -5.9473927501        4.1231397059        4.0607890309
 H        -5.8918567696        5.6236867510        5.1588783572
 H        -3.6970669326        4.2534939625        7.7627220761
 H        -4.0276661342        5.8201903127        7.2272996773
 H        -5.4157606628        4.7855200281        7.4406786049
 H        -0.6689686970        6.9803965390        4.3231753144
 H        -1.9512200253        6.5704420417        3.3358840085
 H         0.1994935816        2.2558724656        1.8436720364
 H        -1.0008528800        2.5502723706        2.9227850196
 H         0.2185452420        6.3320293806        0.2584144499
 H         0.7643133347        7.4099389575        1.5404321555
 H        -0.8778124295        6.8880402044        1.5116003317
 H         1.9404957031        4.0677809570        3.1866858215
 H         1.8407551871        3.9656650763        1.3453828042
 H         2.4499697365        5.4129637913        2.0585274779
 H        -1.6827335388        0.8700666940        1.7472483784
 H        -2.6520379959        2.0931044476        1.1807443695
 H        -1.9178761391        3.3688901596       -3.2617503157
 H        -0.3330458397        2.5020042796       -2.9108587215
 H        -3.3470792656       -0.4989259848       -1.4293123968
 H        -4.5266725239        0.5833840490       -0.7578332362
 H        -3.1982671480        0.0318975572        0.1524113407
 H        -2.3108867268        3.3839663783       -0.7499400335
 H        -3.7681130172        3.1266770873       -1.9230607838
 H        -3.8615042148        2.8496925691       -0.1257074360
 H        -0.8895023556        3.1390836040       -5.4978879812
 H        -2.2206324770        1.8467263436       -5.2922600870
 H         2.5210165811       -0.7208947092       -6.7531637167
 H         3.2680450415        0.3981444015       -8.0190133083
 H        -0.0307196447       -0.9545014461       -8.2056892458
 H        -1.1831424252       -0.9691500994       -6.8727456940
 H         0.5657433979       -1.2277821929       -6.6852437685
 H        -0.8704136676        2.7609476065       -7.5129993197
 H        -0.5245020367        1.7294831905       -8.9735964311
 H        -1.8502765588        1.3182430185       -7.9048895683
 H         4.2717473174        1.6567954047       -6.2900632859
 H         2.9282140005        1.6656136343       -5.1766778440
 H         3.7475055197       -0.3053411518       -0.7662915295
 H         2.2114133014       -0.4603041965       -1.4274026008
 H         6.8949380735        0.3970012548       -3.5467424657
 H         6.1372144859       -1.0769537429       -3.2322803145
 H         6.1615624545        0.1773037764       -1.9935862835
 H         4.4605749702        2.8044566190       -4.0574738451
 H         5.7618400431        2.6176398459       -2.8390922358
 H         6.1022565650        2.2836679097       -4.4329285164
 H         3.7057559485       -2.5345909476       -1.3560481629
 H         4.4530663595       -1.9680617804       -2.8131197234
 H         1.0448932152       -4.7492628618       -0.3427699338
 H         1.3171119894       -6.2948799829       -1.4071812620
 H         1.6743761587       -6.0212609350       -3.9816230671
 H         1.1068214286       -4.4109755751       -4.4826235648
 H         0.3926597558       -5.0438607060       -3.1354856222
 H         3.9873432518       -5.5087047763       -3.8164910012
 H         3.3977959132       -4.1771959784       -4.9386556186
 H         4.6198095464       -3.8622412664       -3.5210356082
 H         2.4080842692       -7.3251953904        0.2217568271
 H         2.8601240646       -5.7644884547        1.1233143177
 H         0.5779824001      -10.1048909714        3.9614735319
 H         1.8899663110      -10.6770130792        2.8045117152
 H         2.2908019394       -9.9060149407        4.3059107191
 H         0.7321242469       -5.9735480432        4.5343114515
 H         2.2643143009       -5.8858492907        3.6887053606
 H         2.1153685861       -7.3461919702        4.6121622472
 H        -1.2785901191       -6.9364120981        3.3901629442
 H        -0.9639821144       -8.5329971906        2.6501318893
 H        -0.4554488107       -8.2458697797        4.3800644216
 Na        0.4930271086        0.0404372383       -2.4174393709
