155

 C        -1.4259551576       -3.8233691244        3.0644798374
 C        -2.4514243343       -2.7722676490        2.5863285958
 C        -3.8900609186       -2.6390619539        3.3566494227
 C        -4.2127796976       -1.1555616194        3.3313751890
 C        -4.6540872832       -0.4803710170        4.6106191009
 C        -5.0047608633       -3.3034316864        2.5264070791
 C        -3.9438649044       -3.2514567536        4.7250407591
 O        -2.1666316986       -2.0568554918        1.6771523211
 O        -4.3504113789       -0.5631468435        2.2383134238
 C        -5.5496566287        0.7700435898        4.4161794920
 C        -5.1327741782        1.9695548795        5.1842060784
 C        -5.8941090789        3.3884875545        5.0624975752
 C        -4.8760411898        4.2131141222        4.0828816164
 C        -3.6999943859        4.8953096945        4.7573951722
 O        -3.9713360220        2.0323670997        5.6225253851
 O        -5.1954562019        4.2351824667        2.9312852517
 C        -7.2088041346        3.2803140247        4.2287097330
 C        -6.2423330948        4.0951428678        6.4503687145
 C        -2.5985669866        5.4512342700        3.7474497772
 C        -1.1573696146        5.2486836402        4.0403066122
 C        -0.0734876226        5.1054597895        2.6723191235
 C        -0.7712333421        4.1333668926        1.6609138288
 C        -0.9271844396        2.7027823091        2.2514410046
 C        -0.0650800022        6.4555762076        2.1124770605
 C         1.3282801507        4.6442487322        3.0573921084
 O        -0.6611708468        5.0475840985        5.1447981192
 O        -1.2336154947        4.4516923448        0.5599443149
 C        -2.0111966380        1.9263373884        1.5400342158
 C        -1.6224489026        1.4761113258        0.1033247272
 C        -2.6892562241        1.2771600773       -1.1412457071
 C        -1.8839916485        1.1101522441       -2.4943975657
 C        -1.5349245002        2.3382028139       -3.3698362709
 O        -0.4426566734        1.3063437929       -0.2216503125
 O        -1.3426447618        0.0615844268       -2.8297545293
 C        -3.5844862502       -0.0837565571       -1.0925204202
 C        -3.4738571553        2.5664056062       -1.1676514121
 C        -1.2390946291        2.0114533475       -4.8543680314
 C         0.1206660677        1.2991775629       -5.1730949833
 C         0.4121206351        0.8260713256       -6.5738730508
 C         1.8995251906        1.5194017615       -6.7643802216
 C         3.0419706682        0.8548227219       -6.1085008670
 C         0.4297127795       -0.7273705061       -6.5058666891
 C        -0.6489340499        1.5396652320       -7.5077249839
 O         0.9455509480        0.8774595072       -4.3370460428
 O         2.0198890328        2.5102456224       -7.4923558240
 C         4.1467550218        1.7006686599       -5.3398125463
 C         4.8970614932        0.5466743701       -4.5611702602
 C         5.4251091662        1.0148253352       -3.0987798851
 C         4.0515631334        0.8507270716       -2.1609291881
 C         3.9821291243       -0.4001163668       -1.2138965179
 O         5.0385155996       -0.5926387081       -4.9340375990
 O         3.1497217818        1.7308635545       -2.2527977161
 C         6.6670826244        0.2735484258       -2.5527860210
 C         5.9152283863        2.5153535569       -2.9618634640
 C         3.9793208347       -1.7104209066       -2.0615947607
 C         2.5401611280       -2.2509390867       -2.2686501713
 C         2.4155821961       -3.7038859660       -2.9551287149
 C         2.6817056815       -4.6948122903       -1.7442854015
 C         1.6964315131       -5.7639888278       -1.4504152655
 C         1.0647628302       -3.9003185240       -3.6073290102
 C         3.5408742026       -3.8310629973       -4.0033446815
 O         1.5716893310       -1.5231699018       -2.0603591290
 O         3.7324423389       -4.5940471248       -1.1543788321
 C         1.9162177618       -6.6503602683       -0.2556593999
 C         0.7701015678       -6.4497527921        0.8110870795
 C         1.1107282146       -7.1540612213        2.2431740936
 C         2.1892755817       -8.3677036622        1.8836355272
 C         1.6634855997       -9.7316597817        1.4456567084
 O        -0.3062189118       -5.8650923958        0.6528480782
 O         3.3984448541       -8.1528458744        2.0004680470
 C         1.7909700957       -6.1722154106        3.2856895611
 C        -0.2664774511       -7.6034034200        2.7827311703
 H        -1.5607643566       -4.7254039609        2.5484720346
 H        -0.4717789502       -3.4478012745        2.8624420448
 H        -1.3923555726       -4.0652893753        4.0922572694
 H        -5.2064155869       -1.1724210426        5.2014593171
 H        -3.7579206538       -0.2987326064        5.2099361377
 H        -4.7127669663       -4.3941756200        2.4738703806
 H        -5.1675338994       -2.9963868382        1.4780656739
 H        -5.9903924269       -3.2889218391        2.9337126457
 H        -4.9099390688       -3.0957442323        5.1387880246
 H        -3.7566356496       -4.3150243970        4.7925027229
 H        -3.1701288752       -2.7193414984        5.3578592396
 H        -5.4736925197        1.1699003938        3.4199144825
 H        -6.6437953444        0.5848336815        4.5966618913
 H        -3.9912922858        5.5044879812        5.5871878102
 H        -3.3316189970        4.0766700748        5.4067339802
 H        -7.8816770125        2.6975161584        4.8038116050
 H        -7.0842509047        2.6872238131        3.2712716130
 H        -7.5393505113        4.2494698648        4.0787902819
 H        -5.2995840182        4.1494460817        6.9857128936
 H        -6.6066979731        5.1490145851        6.3283145445
 H        -6.9113628549        3.3203409963        6.9008102208
 H        -2.7601267975        6.5144815535        3.6609354445
 H        -2.9715969828        5.0521984074        2.7502180605
 H         0.0601069862        2.1926199763        2.2149738540
 H        -1.2335615744        2.8573313413        3.3427007931
 H         0.9400486691        6.7693691085        1.8231058608
 H        -0.2842586323        7.2146732586        2.9077012650
 H        -0.8200439925        6.6271855068        1.3655201123
 H         1.3754642049        3.6079250102        3.4670668193
 H         1.9995075306        4.6894220231        2.2323371324
 H         1.6099404391        5.1749721378        3.9451196842
 H        -2.3764624208        1.0440303188        2.1878555184
 H        -2.9470416958        2.4806641210        1.3561434115
 H        -2.2496306690        3.1314872959       -3.1694029069
 H        -0.6465036305        2.7556775710       -2.8937787922
 H        -2.9571067611       -0.9393315472       -1.1754025801
 H        -4.0118482342       -0.0811935377       -2.0848763722
 H        -4.3115652082       -0.1709164994       -0.3037794256
 H        -2.8034680243        3.3709442523       -1.2512929312
 H        -4.1839619948        2.4999711301       -1.9817281447
 H        -4.0085230865        2.8402926312       -0.2713700771
 H        -1.3824489768        2.9433094456       -5.4374341242
 H        -1.9847129572        1.3214311916       -5.2228620323
 H         2.7107429442        0.1431674362       -5.3595035038
 H         3.7405219425        0.3442745988       -6.8541769309
 H         1.0302834345       -1.2230957787       -7.3122885151
 H        -0.6137378358       -1.0329649667       -6.4958095225
 H         0.8597684837       -1.0769818483       -5.5941465012
 H        -0.2346037775        2.5250525103       -7.7661567121
 H        -0.8799764124        1.0175096237       -8.4538846253
 H        -1.6535629501        1.5889733889       -7.0585246724
 H         4.7543429288        2.1780556996       -6.0981659287
 H         3.8843154713        2.4676655287       -4.6890034092
 H         4.8290036304       -0.3724710188       -0.4658142919
 H         3.0309401737       -0.3485189325       -0.6636438162
 H         7.5624424908        0.5842103689       -3.0113683547
 H         6.6151355086       -0.8172727655       -2.5871423432
 H         6.8232862453        0.5232632665       -1.5229677621
 H         5.1336068987        3.2066236510       -3.2643203134
 H         6.1449754975        2.8240366409       -1.9644005923
 H         6.8103337772        2.6644088092       -3.5231318359
 H         4.5211417061       -2.5093849724       -1.5191535745
 H         4.5318303114       -1.5222758477       -3.0137354183
 H         0.6620679064       -5.3400420780       -1.5990108084
 H         1.7834662458       -6.4001288365       -2.3430817662
 H         0.9955381452       -4.9094330817       -3.9549699452
 H         1.0363837988       -3.2352020566       -4.4486055272
 H         0.2484116924       -3.6484844067       -2.9548707128
 H         3.7932984482       -4.8365292995       -4.2559217889
 H         3.3165318046       -3.4641272704       -4.9659045117
 H         4.4872407687       -3.5048009456       -3.5877319612
 H         1.8181359579       -7.7508920407       -0.4797795368
 H         2.8955782424       -6.5599032566        0.1732491753
 H         2.6145377192      -10.3277654457        1.4645416296
 H         0.9425311842      -10.1700988237        2.1663101297
 H         1.2719030430       -9.7680981644        0.3741013721
 H         1.3773750899       -5.2123571096        3.0801375421
 H         2.8504735113       -6.1327403030        3.1424047008
 H         1.6773675836       -6.7099987520        4.2082782292
 H        -0.9644077345       -6.8076460607        2.7591345523
 H        -0.6677018751       -8.3701649053        2.0969481929
 H        -0.1913241034       -7.9192498097        3.8286565884
 Na        0.8734097317        0.7068624503       -2.1526330496
