155

 C        -1.3092832448       -3.5006225057        3.0090890012
 C        -2.4911887781       -2.6280483416        2.6270832281
 C        -3.8529095115       -2.6755268445        3.3799432605
 C        -4.3656698448       -1.1016262025        3.4450301122
 C        -4.8592316824       -0.5299863089        4.7793360436
 C        -4.7765932821       -3.3360385776        2.2541205870
 C        -3.7678101580       -3.4873574042        4.6669483753
 O        -2.3061736683       -1.9922890650        1.5862165604
 O        -4.2666636866       -0.4046133271        2.5079132735
 C        -5.8233525141        0.6471447626        4.4983712847
 C        -5.2776873076        2.0673775898        4.9684351361
 C        -5.9761899544        3.3736385038        4.8510460591
 C        -5.0098371025        4.2856685627        3.9230968490
 C        -3.7130446867        4.7324898684        4.6137581568
 O        -4.2075457962        2.0286950242        5.5417970764
 O        -5.1231086895        4.5390027114        2.7212814082
 C        -7.4486210482        3.2009758645        4.2721418677
 C        -6.0482397216        3.8782821965        6.3333230327
 C        -2.7557048096        5.4973294436        3.6557818216
 C        -1.2924696850        5.2384151353        3.9340741971
 C        -0.3364788880        5.0353416387        2.7452983974
 C        -0.9447738079        3.9414004193        1.7954365526
 C        -1.2245228923        2.5047541514        2.3567631543
 C        -0.1931353216        6.4189929413        1.9918122532
 C         0.9923565757        4.6717197860        3.3154816355
 O        -0.9139654425        5.0424476965        5.0783969596
 O        -1.0932753126        4.2763800380        0.6612299228
 C        -2.0448788940        1.6825662447        1.4061000884
 C        -1.4127443073        1.5677421607        0.0315912992
 C        -2.4296387212        1.2972823555       -1.0425928255
 C        -1.8111839614        1.2038737252       -2.4365717693
 C        -1.4354892885        2.4967058078       -3.3574346724
 O        -0.1936662801        1.4292867465       -0.0801553811
 O        -1.5494093993        0.0826374571       -2.8920441725
 C        -3.1485625854        0.0011644829       -0.6662139306
 C        -3.6276884700        2.4303285340       -1.0367708666
 C        -1.3106593997        1.9650559835       -4.8066057559
 C        -0.0209287565        1.2807516761       -5.0250546312
 C         0.4592671883        0.8890340640       -6.5579187190
 C         1.8689091000        1.5412182876       -6.6536783789
 C         3.1351729347        0.7668400456       -6.0851074963
 C         0.6392305285       -0.6881029195       -6.7649672357
 C        -0.3774077791        1.2643192887       -7.8242444675
 O         0.7642309619        1.1066970581       -4.1243228452
 O         1.9900966057        2.6255582341       -7.1757483919
 C         4.1271378585        1.5965502985       -5.3009810221
 C         4.9576176639        0.6460118193       -4.3011795746
 C         5.4984613677        1.1858939999       -2.9672801450
 C         4.1721872010        1.0323787354       -2.1285563710
 C         3.8894143416       -0.2629024447       -1.2115368647
 O         5.2261978281       -0.5052288591       -4.6543542969
 O         3.2718082715        1.7573992295       -2.3979846128
 C         6.4855667977        0.1953604556       -2.4027720501
 C         5.9001065814        2.6815121417       -2.9291922719
 C         3.8389549790       -1.6879046331       -1.9023124925
 C         2.4933034742       -2.1306104421       -2.4617665390
 C         2.4141550646       -3.5909641273       -3.0844330384
 C         2.6872325725       -4.6387814586       -1.9134646114
 C         1.6781974421       -5.7518181124       -1.5535018952
 C         1.0213967822       -3.7474181862       -3.6428450593
 C         3.5189853578       -3.9181009025       -4.1368622407
 O         1.4647497601       -1.4660425163       -2.3758471174
 O         3.6924903103       -4.6129832627       -1.2376073222
 C         2.0889651788       -6.4905600765       -0.2610893591
 C         0.8814058172       -6.7102467337        0.7572462587
 C         1.1897102474       -7.2705999939        2.1256531029
 C         2.2628969410       -8.4905024334        1.8575634778
 C         1.7554488988       -9.8532733177        1.3623746409
 O        -0.1624290264       -6.1806996913        0.5328381683
 O         3.3989957794       -8.2434369645        2.0286283004
 C         1.8908283702       -6.2108051370        3.0001046914
 C        -0.0784801555       -7.9025970459        2.8083337871
 H        -1.4801528993       -4.5651892068        2.6461384191
 H        -0.3592361515       -3.1481298101        2.4973944907
 H        -1.0511468095       -3.5711162072        4.0779412737
 H        -5.3684471833       -1.3049070983        5.4147682097
 H        -3.9731503668       -0.2343998891        5.3202057783
 H        -4.5068524153       -4.3046417503        1.9670475302
 H        -4.8039489792       -2.8335866341        1.3127569375
 H        -5.7963066748       -3.4752250869        2.6220410240
 H        -4.7469040307       -3.6863090634        5.2029429453
 H        -3.3955617247       -4.3948418853        4.2096362450
 H        -3.0882160359       -3.1916437351        5.4199840382
 H        -6.0647338330        0.7893387890        3.4195762457
 H        -6.7228663259        0.3642383642        4.9976772671
 H        -4.0796622181        5.3725362533        5.4372712064
 H        -3.2918668990        3.9355231574        5.2153122396
 H        -8.0316078994        2.6584887320        5.0686546129
 H        -7.3816395027        2.5132038619        3.4622763877
 H        -7.9502630337        4.1370148581        3.8720088546
 H        -5.0330442621        3.9459155524        6.7624090041
 H        -6.5700336375        4.8127682344        6.3345809071
 H        -6.4909006923        3.0687502966        6.8257485137
 H        -3.1703042332        6.5297148845        3.4705866132
 H        -2.9471409864        4.9333326824        2.7579753343
 H        -0.2683925592        1.9960018292        2.4650399559
 H        -1.6739316269        2.5487300230        3.3000448133
 H         0.7053183285        6.4590013992        1.3609407614
 H         0.0108008368        7.1826495178        2.7104270919
 H        -1.1051202080        6.7269812528        1.4321817274
 H         1.2397150234        3.6732541750        3.6217977262
 H         1.8051189049        4.9781840571        2.6031201695
 H         0.9950195551        5.1713053921        4.3000452615
 H        -2.0029479622        0.7420917992        1.8572383405
 H        -3.0957573156        1.8346961327        1.3144599462
 H        -2.0847101633        3.4075808940       -3.2867392244
 H        -0.4585193942        2.8873469072       -2.9590827628
 H        -2.8102547868       -0.7904796307       -1.4037681914
 H        -4.2447005619       -0.0081269190       -0.8277513291
 H        -2.8024603266       -0.2920878266        0.3519270657
 H        -3.2979327221        3.3360234941       -0.5064505274
 H        -3.9894928558        2.6394734767       -2.0528598782
 H        -4.5660208106        2.1774538268       -0.5160190552
 H        -1.4217228278        2.8044011476       -5.4725532828
 H        -2.1370997210        1.2640428916       -5.0937947811
 H         2.9413362450       -0.0889448149       -5.4260318816
 H         3.6790664305        0.4401550426       -6.9228958703
 H         1.2692931290       -0.8088932868       -7.6053185214
 H        -0.3377766314       -1.2018485253       -6.9027728246
 H         1.1592073543       -1.2427925156       -5.9187358016
 H        -1.3867945223        1.7663920891       -7.6405402780
 H         0.1890640425        1.8836980601       -8.5661156694
 H        -0.4981949708        0.3495237742       -8.3457788786
 H         4.9057642790        2.1102895384       -5.9363618139
 H         3.6494157266        2.5121836175       -4.8258214427
 H         4.6374086135       -0.3173473733       -0.4595095614
 H         2.9647044541        0.0386757675       -0.6937388071
 H         7.5738000497        0.4434708763       -2.5925342078
 H         6.2753824450       -0.7640969041       -2.8745659743
 H         6.5157340496        0.0235842427       -1.3000757748
 H         5.0276747014        3.2804722277       -3.1615323407
 H         6.2005311149        2.9442397409       -1.9091095154
 H         6.7362178863        2.8950688663       -3.6190756358
 H         4.2770777814       -2.5291156942       -1.3818244448
 H         4.4368729969       -1.5415478212       -2.7827205393
 H         0.7176135449       -5.2648477416       -1.4599213111
 H         1.5306301788       -6.5014153521       -2.3668439748
 H         0.7838729470       -4.7915497334       -4.0038006164
 H         0.9218098383       -3.0636547737       -4.5386227114
 H         0.3295614058       -3.4944073430       -2.7985170223
 H         3.2146684947       -4.6800118052       -4.8527106268
 H         3.5536225644       -3.0730675615       -4.9419346556
 H         4.5599509718       -4.0732564647       -3.8363821037
 H         2.7091868050       -7.3456226512       -0.4872348986
 H         2.7029284511       -5.8569496718        0.4616154046
 H         2.5246287341      -10.5876770859        1.2693185908
 H         0.9960362607      -10.1076867235        2.0554639534
 H         1.3804000903       -9.7252794208        0.4083146754
 H         1.1684720256       -5.3823516660        3.1814289106
 H         2.7028932899       -5.7993425753        2.3746970167
 H         2.2926550617       -6.8013974407        3.8263254758
 H        -0.6160820144       -7.1150705571        3.3222284991
 H        -0.7404490292       -8.4026145010        2.1853083954
 H         0.2033608021       -8.6072347206        3.5784992004
 Na        1.1045870732        0.8997602521       -1.7930519295
