155

 C        -3.4506344920       -0.8103926878        6.5308031658
 C        -2.8769223317       -1.1252432051        5.1845490530
 C        -3.7472383809       -2.1285627227        4.2062210499
 C        -4.7673541393       -1.2909818788        3.3670136031
 C        -6.3090377411       -1.5765933175        3.4989927048
 C        -2.6359958783       -2.7598177525        3.3516792128
 C        -4.4861384162       -3.1590341149        5.0952181872
 O        -1.8775069594       -0.5722431422        4.7425608780
 O        -4.3683633464       -0.5113734855        2.5724270885
 C        -7.1910376090       -0.4302161352        3.0191184693
 C        -7.3631060153        0.6478713755        4.0591362995
 C        -7.8754661156        2.0537986962        3.5899098469
 C        -6.4997874213        2.7157464104        3.0040589466
 C        -5.5175981955        3.8089530296        3.7407649306
 O        -6.9069864162        0.5017446158        5.1934891167
 O        -6.2556191783        2.4496717521        1.8794309134
 C        -8.8673184881        2.0893997311        2.4623940767
 C        -8.4289967333        2.7098440770        4.8747382277
 C        -4.3737311867        4.1500157511        2.6892687665
 C        -3.0998121062        4.6053587789        3.4243501860
 C        -1.9518417820        5.1899518080        2.5006036032
 C        -1.2675037733        4.2381246866        1.5242929069
 C        -0.5140386715        3.0133644189        2.1316574317
 C        -2.6427466880        6.4413191745        1.7638293744
 C        -0.9339556257        5.7541307240        3.6059987649
 O        -2.9999080104        4.4535342095        4.6234780720
 O        -1.2774794940        4.3864149532        0.3335398986
 C        -1.2331257319        1.7714934668        1.6840718262
 C        -0.9702051284        1.4979393852        0.2152873124
 C        -2.0882057952        1.2824617200       -0.7856878029
 C        -1.3150278923        1.2371678976       -2.1857480145
 C        -1.7061117986        2.3445594306       -3.2039238538
 O         0.2057484833        1.3516149815       -0.0573817336
 O        -0.5564123539        0.3497023934       -2.4624500441
 C        -2.5424481073       -0.1509594360       -0.4696055690
 C        -3.2888424280        2.2976434168       -0.7763469961
 C        -1.0385995012        1.9910228402       -4.5793204474
 C         0.4270793663        2.3061311324       -4.7902934552
 C         0.8815774925        3.1365565685       -6.0120192361
 C         2.4476332099        3.5698347557       -5.7473544637
 C         3.4483121564        2.4285672084       -5.6881387141
 C         0.7694039169        2.3164677326       -7.4105064132
 C         0.0109089783        4.3969649547       -5.9619269371
 O         1.2478617583        1.9340931451       -3.9950495428
 O         2.8399885399        4.7046290774       -5.6662800029
 C         4.3205657477        2.5345514673       -4.3836929915
 C         5.1643277765        1.3817189175       -3.9582177121
 C         5.6566482443        1.4972800729       -2.3947739373
 C         4.4230237107        1.2053097097       -1.4861120527
 C         4.4412367568       -0.1303985358       -0.7182898473
 O         5.2739626224        0.3409760721       -4.5598902546
 O         3.4385653716        1.9457803576       -1.4288484270
 C         6.9254718529        0.5708871666       -2.2515898551
 C         5.9343212076        2.9248510518       -2.0419104267
 C         4.6049200091       -1.3419248331       -1.6670920654
 C         3.3006232266       -2.0164533131       -2.1236761524
 C         3.4481085313       -3.5043809463       -2.6083711169
 C         3.4838947553       -4.4289879162       -1.3157277228
 C         2.5393306384       -5.7084196928       -1.2223652654
 C         2.2297217632       -3.5650484368       -3.4812637464
 C         4.8413252323       -3.7849041039       -3.3141336417
 O         2.1669542470       -1.5343260595       -2.0001242172
 O         4.1518499327       -3.9900681011       -0.3903845306
 C         3.1412729596       -6.8135932373       -0.3857723567
 C         2.0860064648       -7.9679570178       -0.4067908925
 C         2.4670415657       -9.2706255927        0.6189945030
 C         3.5705880958      -10.0730340636       -0.2357134939
 C         3.3615924596      -11.4558796578       -0.7688211660
 O         1.0552309661       -7.9538184270       -0.9590468491
 O         4.6027200749       -9.4931629697       -0.4166185842
 C         3.1197613235       -8.8239477707        1.8411193636
 C         1.2275010017      -10.1141964859        0.9402399907
 H        -3.4142414593       -1.6995171496        7.1858446929
 H        -2.9526879454        0.0335910652        7.0318690350
 H        -4.5277890035       -0.6685522343        6.4530138668
 H        -6.6153847875       -2.4696765665        2.9172145256
 H        -6.6501797848       -1.6669004802        4.5433883024
 H        -1.9243713306       -3.1692750786        3.9629174708
 H        -2.3288685272       -1.9300914940        2.7561340121
 H        -2.8929825724       -3.4817117342        2.5675878895
 H        -4.7806230495       -3.9964183976        4.5046907080
 H        -3.7804903201       -3.6343430933        5.7833023094
 H        -5.3534613976       -2.7952708536        5.5647007844
 H        -6.8957403735       -0.0065339969        2.0782858498
 H        -8.2109049220       -0.8770655319        2.7451799302
 H        -5.9425915455        4.7511782236        4.1011994484
 H        -4.9879505468        3.2295406314        4.4713621833
 H        -9.7590363176        1.4933140240        2.7099598153
 H        -8.5742666831        1.6552074482        1.5232803554
 H        -9.1733114285        3.1616438347        2.2806247711
 H        -7.8603640725        3.1250761803        5.6758167290
 H        -9.0927982002        3.4864277984        4.5794650654
 H        -8.9606290584        1.8958787754        5.2788086468
 H        -4.5620696555        4.9772864527        2.0641660592
 H        -4.0353938912        3.3142889067        2.0306484864
 H         0.5052437080        2.7833772634        1.7922491496
 H        -0.4789015926        2.9761886997        3.2943202142
 H        -2.7636760080        6.3928451916        0.6641861505
 H        -1.9951412858        7.2986627564        1.9323626656
 H        -3.6165869002        6.7576413748        2.2311602698
 H        -0.3387856736        4.9615619902        4.0441589440
 H        -0.2609864484        6.4528580255        3.0593106934
 H        -1.5312134837        6.1620344024        4.4418880740
 H        -0.8409464798        0.8774520589        2.2717501469
 H        -2.3415239478        1.8040088619        1.9762582953
 H        -2.8005433915        2.4649399360       -3.2292042052
 H        -1.2709602120        3.2916933478       -2.8751769187
 H        -3.0317268980       -0.2842121926        0.5204704271
 H        -1.6353969669       -0.7846457983       -0.4156714187
 H        -3.1958378910       -0.4988312456       -1.2926835205
 H        -2.8611402608        3.2672289593       -0.9022159651
 H        -4.0876488043        2.0933823320       -1.4685164130
 H        -3.6974582043        2.2274075056        0.2477296029
 H        -1.5121155599        2.6305863361       -5.3348867493
 H        -1.2399480733        0.9603617592       -4.7808365097
 H         2.8790922077        1.4866494890       -5.7913624344
 H         4.1825908004        2.3607731843       -6.5047488876
 H         1.6454078642        1.7160476329       -7.5422883464
 H         0.5128143932        2.9808028153       -8.2414104645
 H        -0.1442283386        1.6398340124       -7.4514624574
 H        -0.9728603221        4.1050914312       -6.2751960497
 H        -0.1259467974        4.8057415650       -4.9644247478
 H         0.2903754555        5.1312970509       -6.6945523444
 H         4.9571156522        3.4018284040       -4.4873789564
 H         3.6483193520        2.8483702548       -3.4822309467
 H         5.3194407883       -0.1415283563       -0.0521789189
 H         3.4785711422       -0.1853802321       -0.1786552629
 H         7.1940906547        0.0114787663       -1.3467983580
 H         7.7368583814        1.1477493614       -2.6241144922
 H         6.7101262340       -0.1957074551       -2.9780717828
 H         5.0475232867        3.4970464946       -2.2365681275
 H         6.1738905551        2.9265305040       -0.9866762520
 H         6.7766582241        3.3391717670       -2.5811800565
 H         5.1969075369       -2.1021925050       -1.1031203612
 H         5.2071426441       -1.1436228382       -2.5745392274
 H         1.6695327528       -5.3578427499       -0.6044140807
 H         2.1426915049       -6.0336624967       -2.2191038380
 H         1.8118029496       -4.5631574992       -3.5934120793
 H         2.4471819988       -3.1744315779       -4.4821404048
 H         1.4466209023       -2.9989747754       -3.0344269686
 H         4.6663872878       -4.5799235626       -4.0877965957
 H         4.9110789884       -2.7758774754       -3.7760406682
 H         5.6280282048       -4.0507801801       -2.6411083960
 H         4.1087505846       -7.1532293814       -0.7960310426
 H         3.1710566738       -6.4242154396        0.6177356665
 H         3.3595967016      -11.5220278162       -1.8253987772
 H         4.2430152739      -11.9867170200       -0.4652861760
 H         2.5564675553      -11.9886125558       -0.3747869640
 H         2.8278422018       -7.8497130791        2.2126894418
 H         4.1812498527       -8.4944129608        1.6765086422
 H         3.0152262894       -9.5279693035        2.6926226773
 H         0.5277378080       -9.4537706901        1.4376622846
 H         0.7844420159      -10.5017099106       -0.0042267990
 H         1.5252837577      -10.8924528360        1.6376029138
 Na        1.5383014453        0.7617288310       -1.9276377456
