155

 C        -4.2869759455       -0.3582156350        6.6891178824
 C        -3.2595651577       -1.0235263264        5.8372208022
 C        -3.8618423809       -2.0800074559        4.7186710934
 C        -4.8287968577       -1.3160508355        3.8143333603
 C        -6.2198663486       -1.8005671397        3.3560593240
 C        -2.7031948660       -2.3732728957        3.7356353507
 C        -4.4846819997       -3.3629217346        5.4669794890
 O        -2.0605110830       -0.8212672499        5.9275743154
 O        -4.3803443445       -0.3155109814        3.3021071907
 C        -6.9376422405       -0.5697880190        2.6550263572
 C        -7.3050040909        0.5727249233        3.6885269573
 C        -8.0739001025        1.8580953409        3.1726615855
 C        -6.8627234207        2.5168150843        2.5116523468
 C        -5.6854844428        3.1957328351        3.2435901150
 O        -7.0697135289        0.3783710380        4.8599828958
 O        -6.8108410543        2.4298686501        1.2601861346
 C        -9.3091595092        1.6477199514        2.2923636202
 C        -8.4971988127        2.6366780286        4.3546878471
 C        -4.8188622844        3.9283221639        2.1560200248
 C        -3.7480210163        4.5960219070        2.9424863757
 C        -2.4330508277        5.2646271517        2.3291059958
 C        -1.7690105054        4.1389426488        1.6173794925
 C        -1.2871812058        2.9501852538        2.4492348998
 C        -2.9237095129        6.3533687494        1.3060257424
 C        -1.6599467093        5.7666143056        3.5986202686
 O        -3.8115019976        4.7437684718        4.1244566363
 O        -1.5405265325        4.0083486903        0.3923584511
 C        -1.6704214922        1.6058804539        1.8413260452
 C        -1.1786383230        1.5275230925        0.3047997489
 C        -2.1920686149        0.8937212473       -0.9073496711
 C        -1.4348273935        0.6226110981       -2.2537629648
 C        -1.6306394648        1.4717655786       -3.4773011098
 O         0.0424069454        1.5999527587        0.0700360831
 O        -0.5163127351       -0.1258547541       -2.0321230077
 C        -2.6683673153       -0.5066015391       -0.4203166095
 C        -3.3643200417        1.9711062268       -1.0534017714
 C        -0.5228010248        1.4913388385       -4.5652485775
 C         0.5980440555        2.6128312458       -4.3355224525
 C         0.9539029496        3.5896535016       -5.4232359911
 C         2.5868286577        3.9757374975       -5.0249612880
 C         3.6558470820        2.7920449431       -5.0911551965
 C         0.7093914157        2.9925156826       -6.7962999272
 C        -0.0753922927        4.7154956320       -5.3071585519
 O         1.1159285590        2.6117088036       -3.2359691185
 O         2.9082338650        5.0425928458       -4.5822764936
 C         4.9465636568        3.2392909492       -4.4822101404
 C         5.7859429143        2.0135122883       -4.0791058527
 C         6.1020817465        1.7219215705       -2.6250352398
 C         4.8956868801        0.9980225697       -1.9207398650
 C         5.2767633828       -0.0623288919       -0.9881718921
 O         6.2058709379        1.2478807809       -4.9292528506
 O         3.7178554292        1.3481025038       -1.9722602781
 C         7.4230148735        0.9010723715       -2.4539488424
 C         6.3203914772        3.0082240592       -1.7791725406
 C         5.1837320357       -1.3816566999       -1.6552524979
 C         3.6566813049       -1.8684361647       -1.9038250729
 C         3.4797652446       -3.3849191564       -2.3937542795
 C         3.4146778660       -4.3409224828       -1.0611513771
 C         2.6286888609       -5.7201353389       -1.3726550281
 C         2.1574890847       -3.4554294942       -3.1318350153
 C         4.5804882249       -3.8827978136       -3.3696236120
 O         2.7894300587       -1.0382691374       -1.7266237926
 O         3.8110687551       -4.0080396834        0.0319136762
 C         2.9059253475       -6.7527323619       -0.2758121135
 C         2.3447226476       -8.2031331401       -0.6453157726
 C         2.9276216002       -9.4131087286        0.0526482148
 C         3.9004866185      -10.0946667769       -0.9630918293
 C         3.2308481145      -11.1906250362       -1.7724962551
 O         1.5300970950       -8.2505121346       -1.5842652888
 O         5.0843514186       -9.7439930554       -1.0066448632
 C         3.5748144903       -9.1128960030        1.4160555092
 C         1.7298378167      -10.4474426220        0.3365493300
 H        -4.7110837050       -1.1081241826        7.4188449188
 H        -3.8738385853        0.4214820455        7.2894669825
 H        -5.0858759929        0.0923289277        6.1347190758
 H        -6.0169121963       -2.6157570934        2.6429159457
 H        -6.8780161707       -2.3237471484        4.0752879118
 H        -1.7565219323       -2.7411110896        4.1122444128
 H        -2.3150238831       -1.4164594208        3.3162175186
 H        -3.1414643708       -3.0853541995        3.0220738663
 H        -4.9746887084       -4.0013647765        4.6929005336
 H        -3.7327056407       -3.9247865808        6.0306096121
 H        -5.1891520775       -3.1720269879        6.2249029544
 H        -6.3039572596       -0.2745374551        1.8989008180
 H        -7.9068998873       -0.9948936909        2.2786355308
 H        -6.0331012216        3.9637652625        3.8724999904
 H        -5.1788947281        2.3309823161        3.5487406110
 H       -10.1350158928        1.1905453637        2.7973017885
 H        -8.8909232841        1.0619629638        1.4230543089
 H        -9.7211847341        2.5289615717        1.8664033981
 H        -7.8901835778        2.6110116925        5.2714258405
 H        -8.7240734406        3.6987666306        4.0370605182
 H        -9.5583133675        2.3095794712        4.5380226800
 H        -5.4486960571        4.5493168121        1.5137641341
 H        -4.3396023275        3.1444453325        1.4741517540
 H        -0.2146672365        2.8029636885        2.4779583472
 H        -1.5262574586        3.0065975861        3.5314996793
 H        -2.2185857492        7.2051002006        1.2148891688
 H        -3.8462904772        6.7980948111        1.5663613673
 H        -2.9791824263        5.9139065992        0.2893187524
 H        -1.0717070301        4.9475312595        4.0145037295
 H        -1.0029112113        6.5170659617        3.1723473838
 H        -2.2581060960        6.2820261529        4.2777051380
 H        -1.0595515072        0.8680223865        2.3000265894
 H        -2.7190005198        1.4356553683        1.8497115020
 H        -2.5024924706        1.0065339910       -3.9290732223
 H        -1.9227509677        2.4374335258       -3.0861371395
 H        -2.1887517831       -0.7005275042        0.5198970791
 H        -2.4832498174       -1.2886066374       -1.1542493824
 H        -3.7371457388       -0.5511736036       -0.1503074762
 H        -2.9258890982        2.9518514804       -0.9517883676
 H        -3.8115818906        1.8739323728       -2.0761464270
 H        -4.2151934235        1.9271293695       -0.3325157211
 H        -1.0467443960        1.5358480300       -5.5626998094
 H        -0.0127078604        0.5359537364       -4.4944571254
 H         3.2662936302        2.0550569898       -4.5143725814
 H         3.8543367701        2.4134700632       -6.1298319472
 H         1.3850321909        2.3757731089       -7.2828109555
 H         0.7162398739        3.7924326771       -7.5085992598
 H        -0.2330513906        2.4261639794       -6.7612522591
 H        -0.6280192117        4.8683892617       -4.2872205924
 H         0.3854768123        5.7211043099       -5.3489655867
 H        -0.7310771754        4.7657703976       -6.1515410478
 H         5.4250607149        3.8526523178       -5.1707003283
 H         4.7624054287        3.8913441570       -3.6377552856
 H         6.2147705315        0.1143762634       -0.4987540107
 H         4.5803786814        0.0117108394       -0.1915188581
 H         7.7789411009        0.7721181764       -1.4147479427
 H         8.2435626615        1.3411198238       -2.9711096801
 H         7.3947460359       -0.0835088824       -2.9636280717
 H         5.4983295777        3.7571333524       -1.6501338280
 H         6.5502961421        2.7453327709       -0.7098056666
 H         7.2230691851        3.5076885095       -2.2082376064
 H         5.7249738901       -2.0739974933       -1.0210951002
 H         5.6268750990       -1.4276359053       -2.6495390413
 H         1.5410526683       -5.5548509491       -1.2374010239
 H         2.7529835146       -6.0064302698       -2.3681359940
 H         1.3795388912       -3.9255522521       -2.4793803070
 H         2.1166656172       -4.0528696531       -4.0646855177
 H         1.7697025215       -2.4604422412       -3.3836468072
 H         4.1929902929       -4.8056692201       -3.6480262022
 H         4.4003846494       -3.2562135339       -4.2519314655
 H         5.6007722511       -3.8479081395       -3.0195204072
 H         3.9802790451       -6.8453017470       -0.0578459824
 H         2.4943133005       -6.4688366866        0.6982142894
 H         3.2616335259      -12.1928542886       -1.2581909797
 H         2.1590463639      -10.9819229814       -1.9604337293
 H         3.7250134469      -11.3706686668       -2.7874394755
 H         2.8467661887       -8.6284055573        2.0262141426
 H         4.5236639682       -8.6664880456        1.4589775677
 H         3.8412017349       -9.9689843979        2.0234157890
 H         1.2785963542      -10.0599568396        1.2740311652
 H         0.9896898577      -10.5478101376       -0.4343431735
 H         2.2204397858      -11.3761115840        0.6427824142
 Na        1.4367576995        0.8115161281       -1.5488667401
