155

 C        -4.9549087483        0.0931351545        6.6093288326
 C        -3.7843689349       -0.7425039349        6.1731516104
 C        -3.8614782676       -1.6987474736        4.9606792171
 C        -4.6293788646       -1.0366118595        3.7309189739
 C        -6.0080317953       -1.7034819653        3.4552747661
 C        -2.4590478083       -2.1759678843        4.4584446964
 C        -4.4765113927       -2.9847731387        5.5201485736
 O        -2.7622304665       -0.7714417805        6.8470867152
 O        -4.1444287728       -0.1163090574        3.1308568574
 C        -7.2111069342       -0.9815024421        2.7015373287
 C        -7.6740001545        0.3287673026        3.4702926188
 C        -8.4339840858        1.4294159789        2.5979361720
 C        -7.3564635768        2.3813223267        1.9478505110
 C        -6.6080235673        3.4581577337        2.8142832323
 O        -7.3261073577        0.6079257759        4.6086177394
 O        -6.9097266150        2.0906867301        0.8266381506
 C        -9.3779414213        0.6238471398        1.4957384747
 C        -9.2340589485        2.3802407239        3.4757542691
 C        -5.5411998497        4.3884744146        2.1412671109
 C        -4.3342063889        4.9271435603        2.9710942650
 C        -2.9798454118        5.0883569566        2.0969818312
 C        -2.6292960937        3.6637778196        1.3960041520
 C        -1.9334490553        2.6240362582        2.2673953740
 C        -3.3343043365        6.1453151209        1.0335574180
 C        -1.7822106520        5.5944416038        2.9823035778
 O        -4.3497029398        5.2163172593        4.1123250528
 O        -2.8604360923        3.4420861406        0.2033627662
 C        -2.0316429359        1.3074519233        1.5982067717
 C        -1.2260172189        0.9403141489        0.3498386500
 C        -1.8775254891        0.1014404585       -0.7377650910
 C        -0.8361876906        0.4363637882       -1.9445997831
 C        -1.1673865484        1.5883013025       -2.9343271877
 O        -0.0376888477        1.2594262636        0.3402550507
 O         0.0363045758       -0.4358827003       -2.2249076147
 C        -1.7922025609       -1.4514705516       -0.3691427331
 C        -3.2156246538        0.4961845743       -1.2417740461
 C        -0.1848962285        1.7035908696       -4.0893618728
 C         0.9680165834        2.6922397012       -3.8102432847
 C         1.1127861552        3.9005091183       -4.7567068407
 C         2.5367595843        4.4890284032       -4.3573883817
 C         3.7857734558        3.7703096344       -4.7113449850
 C         1.0558858009        3.6630252965       -6.3566195416
 C         0.1233661928        4.8656114290       -4.0479216905
 O         1.6016754006        2.6004110057       -2.7869639729
 O         2.5131907301        5.4649916016       -3.6666319581
 C         4.8038548100        3.6998153095       -3.5350736070
 C         5.8777938567        2.5162422954       -3.7949392239
 C         6.2408649595        1.6142877747       -2.4514879923
 C         5.0015388862        0.9172211021       -1.7813697518
 C         5.2376884661       -0.1178192592       -0.7533911606
 O         6.3450071330        2.1318089648       -4.8600295985
 O         3.9500942856        1.5282711715       -1.8097750504
 C         7.3967846847        0.5425415519       -2.8236147424
 C         6.8298639285        2.5916963396       -1.3953069810
 C         5.1866604073       -1.5520255241       -1.2732354399
 C         3.7371444239       -1.9308004360       -1.6829128870
 C         3.5125607424       -3.1731384579       -2.5358551308
 C         3.2905725095       -4.3062616385       -1.5020219633
 C         2.7419224357       -5.8040224356       -1.8148528297
 C         2.1402613167       -2.8917496794       -3.1497802932
 C         4.6514769718       -3.5858025837       -3.4642576429
 O         2.7498798431       -1.2696159173       -1.5012134734
 O         3.8339202716       -4.0837003888       -0.4199077460
 C         3.5232000206       -6.7446233129       -0.9066604114
 C         2.7000219789       -8.1559473166       -0.8689692400
 C         3.4502947514       -9.5329692156       -0.5204723047
 C         4.3870182496       -9.8590434176       -1.7246207999
 C         3.7025131835      -10.0487926814       -3.0293857823
 O         1.4835162507       -8.0502696585       -1.0769597056
 O         5.5658688677      -10.1713217695       -1.5556430699
 C         4.3385524109       -9.2005599507        0.7126402247
 C         2.4981514107      -10.6241563087       -0.3196917511
 H        -5.8990361942       -0.4409293746        6.2621931052
 H        -5.0042504923        0.2750574541        7.6905326113
 H        -4.9988052713        1.0640791990        6.0601572805
 H        -5.7117058913       -2.6080070170        2.8830237914
 H        -6.4060985477       -2.1184712441        4.3782711019
 H        -1.9431896860       -2.4677744070        5.3130770355
 H        -2.0472401827       -1.2976286991        3.9541138917
 H        -2.4245066980       -3.0282843809        3.7072873491
 H        -4.8537150397       -3.6066930382        4.7431405187
 H        -3.7000993991       -3.5483953051        6.1322148390
 H        -5.3314202231       -2.7750482693        6.1833499293
 H        -6.7696948911       -0.6945713382        1.7138728299
 H        -7.9156323105       -1.7154093501        2.4209918081
 H        -7.2207056577        4.1074004306        3.3990359334
 H        -6.1313854998        2.9808139235        3.6828231681
 H        -9.7348686653       -0.1523584688        2.1185824710
 H        -8.7940464152        0.1290003889        0.7200597390
 H       -10.2216482634        1.2130801870        1.1675955882
 H        -8.6701878129        2.4765989482        4.4210692936
 H        -9.4474573866        3.3123173567        2.9322107261
 H       -10.1698871419        1.8095243563        3.5541375838
 H        -6.0908387466        5.3177108442        1.9684256522
 H        -5.2448221060        4.0458817608        1.1580092698
 H        -0.8760091101        2.9140275597        2.3158279118
 H        -2.4131133606        2.6405533961        3.2680148772
 H        -2.5899316901        6.8804989268        0.7213294044
 H        -4.2058523248        6.6915808100        1.4398567052
 H        -3.7116218504        5.6662475502        0.0850508379
 H        -1.1214948462        4.8537965504        3.3558379102
 H        -1.1030943590        6.2324059901        2.3969427264
 H        -2.1560657666        6.1720867718        3.8342139106
 H        -1.8115533293        0.4446000841        2.1922466135
 H        -3.0883082716        1.0158955991        1.4284095286
 H        -2.1553780530        1.3269552076       -3.3203575859
 H        -1.3299694564        2.5034095821       -2.4028098918
 H        -0.8801013015       -1.5038327544        0.2630776783
 H        -1.5158122300       -2.1117586464       -1.2327254186
 H        -2.6792678233       -1.7952086451        0.2254039847
 H        -3.5034209627        1.5482722920       -1.2111459149
 H        -3.2966150622        0.2892939076       -2.3218665328
 H        -4.0605067167       -0.1234191914       -0.8151095279
 H        -0.7525227969        2.0133796120       -4.9545275949
 H         0.2507167805        0.7345219900       -4.4422606072
 H         3.5254280834        2.7658751455       -5.1285750438
 H         4.2069032354        4.2263956140       -5.5453904150
 H         1.8330855021        2.9945140432       -6.6470032387
 H         1.2566785655        4.6187919163       -6.8149998856
 H         0.1151919269        3.2535236569       -6.8187242007
 H        -0.2074090675        4.6501758825       -2.9453477745
 H         0.5132604484        5.8752272741       -4.1775521346
 H        -0.8628509130        4.7306438651       -4.4897113431
 H         5.3540931991        4.5971750035       -3.4172597535
 H         4.3118570853        3.4612828117       -2.6262126530
 H         6.1536474984        0.0772238595       -0.2494667396
 H         4.3840381542        0.0051443863       -0.1058056384
 H         7.8754804755       -0.0068304161       -1.9477462435
 H         8.1957026458        1.0124509932       -3.3889044848
 H         7.0118608946       -0.3576167483       -3.3330756428
 H         6.3799233094        3.5799628433       -1.2766829682
 H         6.9030952539        2.1102132970       -0.4005918559
 H         7.8682019117        2.9629272336       -1.5440310490
 H         5.4046501087       -2.2617454524       -0.4567073204
 H         5.8300099917       -1.7406287480       -2.1235027082
 H         1.7247952907       -6.0367472555       -1.8427677701
 H         3.0607402125       -6.1644802040       -2.8531936192
 H         1.4115168481       -2.5913539869       -2.3681546013
 H         1.6577128015       -3.8402502204       -3.5634111976
 H         2.1824397599       -2.1550657779       -3.9762928707
 H         4.5191528324       -4.4528237742       -4.1389833983
 H         4.9167743769       -2.6892103736       -4.0558942005
 H         5.4588899540       -3.8317259605       -2.8420722323
 H         4.4908536391       -6.9583712639       -1.3164270557
 H         3.6788697029       -6.5299527293        0.1475899986
 H         2.5884847469      -10.2218993022       -3.0652750145
 H         3.9708973912       -9.2345501257       -3.7910744624
 H         4.1911959595      -10.9487282149       -3.5456218207
 H         3.8761959405       -9.0308637001        1.6324522798
 H         5.0057272862       -8.3321279726        0.6356811366
 H         4.8384037245      -10.1209530314        0.9255824563
 H         1.8437874407      -10.4839657921        0.6143465610
 H         1.8496404496      -10.6860634291       -1.2346318974
 H         3.0701380138      -11.6050513223       -0.2581026607
 Na        1.7698407539        0.7846320128       -0.9931654990
