155

 C        -5.3630396596        0.1731287269        6.8731178794
 C        -4.0559041784       -0.4438198670        6.4134542505
 C        -4.1341366583       -1.5988087335        5.3343919865
 C        -4.8546114213       -1.2127879575        4.0589353599
 C        -6.3303090666       -1.5503920491        3.9495840389
 C        -2.6148851531       -1.8966105798        4.8007668573
 C        -4.8900884752       -2.7938838844        5.9492760299
 O        -3.0046859216        0.0470096773        6.7018574161
 O        -4.3358402234       -0.4810083165        3.1600960700
 C        -6.9376907398       -0.8095248695        2.7308060628
 C        -7.7503875565        0.3404866047        3.2059638145
 C        -8.5880861413        1.2105311751        2.2189286671
 C        -7.3623893756        2.1355692086        1.4814180325
 C        -7.2163400436        3.6250389669        1.9675043144
 O        -7.7028299330        0.7146971597        4.3925684304
 O        -6.7548672099        1.6559025020        0.5212206687
 C        -9.2392697442        0.3413331016        1.0857055181
 C        -9.7410080030        1.8813087153        2.9160015037
 C        -6.0281804615        4.3087861878        1.1897314539
 C        -4.7188445139        4.0648759650        1.9618075293
 C        -3.3215517465        4.7282146769        1.4734144702
 C        -2.5023390044        3.5520900341        0.9453806418
 C        -1.7947493632        2.4941249422        2.0376629072
 C        -3.4755237030        5.6547013248        0.3185246865
 C        -2.6621639753        5.4671856491        2.6992869908
 O        -4.6550401702        3.4560062124        2.9967068329
 O        -2.5761033350        3.2670319914       -0.2440989736
 C        -1.7094262012        1.0100681495        1.6323846810
 C        -0.7383053006        0.8085770318        0.4801554020
 C        -1.2337252897       -0.1006865647       -0.7426962773
 C        -0.7060760478        0.6464161584       -2.0698071092
 C        -1.4713121606        1.8515330262       -2.5914763099
 O         0.4351980402        1.2315493241        0.5604504155
 O         0.2698987298        0.2430680058       -2.6605604000
 C        -0.3325538582       -1.4642941628       -0.5462385709
 C        -2.6953310408       -0.3847160505       -0.9322544802
 C        -0.7377398776        2.5752784718       -3.6998810815
 C         0.5414933571        3.2742388199       -3.2947268338
 C         0.8890708836        4.6506870129       -4.1109746432
 C         2.4761129303        5.1827973407       -3.5492100177
 C         3.5599157585        4.0912890315       -3.9548076112
 C         0.9379522271        4.2466155802       -5.6579512251
 C        -0.1113270135        5.7511066053       -3.6533779513
 O         1.2839587575        2.9599099133       -2.3762271131
 O         2.6897785078        5.9553536402       -2.6605326819
 C         4.3299212754        3.6892194726       -2.6445737543
 C         5.1516516354        2.4934056568       -2.8174053645
 C         6.0137812641        1.9477097791       -1.6360149960
 C         5.0699001138        0.9548972278       -0.8710549364
 C         5.4515769293       -0.4210872230       -0.2161681271
 O         5.1564087471        1.8478156977       -3.8486838462
 O         3.9482675938        1.3397530765       -0.7351498500
 C         7.2383099458        1.2510964419       -2.2188690457
 C         6.4216817815        3.1493258277       -0.7667419068
 C         5.4639027130       -1.6482133120       -1.1977835082
 C         4.0737488406       -1.8546815355       -1.9288378199
 C         3.6221344977       -3.2715308895       -2.3931787307
 C         4.0228689842       -4.5087926698       -1.4768573376
 C         3.2082778497       -5.9082965699       -1.6614692424
 C         2.0612293796       -3.4512029912       -2.6201857884
 C         4.2404133231       -3.4994095163       -3.7940514594
 O         3.3223930136       -0.9142003894       -2.1336056696
 O         4.9546163142       -4.4845752764       -0.7248048626
 C         3.8568477623       -7.1190447826       -0.8867055289
 C         3.0402668801       -8.4011918145       -1.1344125094
 C         3.8274810255       -9.8147835339       -1.1852931368
 C         4.7361045725       -9.7887421856       -2.4954235933
 C         4.0743845690      -10.0422064498       -3.8722859409
 O         1.8583140100       -8.4735354019       -1.3583613847
 O         5.9065723070       -9.5473461769       -2.3676461966
 C         4.9241772226      -10.0206495473       -0.0061315224
 C         2.7196038163      -10.8437257883       -1.1630066053
 H        -5.4364146803        0.0005732354        7.9704129655
 H        -5.3509145016        1.2653094042        6.6734478696
 H        -6.2930479164       -0.3143881478        6.4223540889
 H        -6.3296501575       -2.6408606042        3.8061562913
 H        -6.8790761014       -1.2284432819        4.8432690494
 H        -1.8854441413       -1.9773757949        5.5776948640
 H        -2.3907902533       -0.9988710218        4.2472794278
 H        -2.6072405022       -2.7304825274        4.0891807160
 H        -5.0163214914       -3.5470783969        5.2129838382
 H        -4.2858392320       -3.2485543083        6.7045189602
 H        -5.8984350536       -2.4734669690        6.2001869758
 H        -6.2054151379       -0.4481600287        2.0419773004
 H        -7.4799190188       -1.5413411075        2.1019988519
 H        -8.2056249603        4.1738988053        1.7632281489
 H        -7.0903325583        3.7492469933        3.0302236434
 H        -9.8189693645       -0.3829435099        1.6151534574
 H        -8.5214750346        0.0010611677        0.4211025764
 H        -9.9468390738        1.0332808298        0.6054731505
 H        -9.3307463412        2.3876439145        3.7686879995
 H       -10.1458988002        2.5479853012        2.2197150306
 H       -10.3111718699        1.1237010194        3.3756868104
 H        -6.3102827510        5.3364790567        1.0779945666
 H        -6.0497588865        3.9674452273        0.1860445338
 H        -0.8164659352        2.9742416540        2.2295464929
 H        -2.4472925561        2.6707280329        2.8711076666
 H        -2.4965277038        5.7782789608       -0.1085154734
 H        -3.8820941457        6.6441043427        0.6452236790
 H        -4.1151071834        5.2204016151       -0.4248429156
 H        -2.8061382599        6.5262676133        2.5488540734
 H        -3.0548896774        5.1171356945        3.6524001142
 H        -1.5231912058        5.3069173573        2.7861329176
 H        -1.0926308155        0.4726351749        2.4096113589
 H        -2.6497947076        0.4909184499        1.3879321577
 H        -2.4959334472        1.6729825674       -2.8376051261
 H        -1.5385613342        2.5482310272       -1.7668169568
 H         0.6833080022       -1.2091602453       -0.9474814958
 H        -0.7400750700       -2.2486125399       -1.2009513990
 H        -0.2879533241       -1.8575834073        0.4815999401
 H        -3.3568490557        0.3924150828       -0.5048496748
 H        -2.9749444380       -0.6696405015       -1.9402621307
 H        -3.0544277832       -1.2232493384       -0.3234687011
 H        -1.4363014002        3.3263200717       -4.0958108900
 H        -0.3501893601        1.9361693743       -4.5079873071
 H         3.0900763017        3.1381427972       -4.4336703992
 H         4.2465615603        4.5812997385       -4.6182619763
 H         1.8407338965        3.6117247524       -5.6633683157
 H         1.0915526290        5.1236123720       -6.2439130569
 H         0.0812798452        3.7783212685       -6.0575588943
 H        -1.0234588811        5.2053947373       -3.2545176116
 H         0.3441538075        6.1498980220       -2.7502504231
 H        -0.1787512305        6.6011649169       -4.3556932100
 H         4.9466517782        4.5081450157       -2.3701135714
 H         3.7231992276        3.5007669120       -1.7868079871
 H         6.3558309451       -0.3648468757        0.3353693797
 H         4.6835227118       -0.5711888995        0.5069052496
 H         8.0298121925        1.0901819243       -1.4481282116
 H         7.7824724347        1.8606458760       -2.9962408667
 H         6.8878746328        0.3785062391       -2.7780457807
 H         5.6612367310        3.3922516278       -0.0219692868
 H         7.2469745878        2.9674357515       -0.0755680676
 H         6.7387640295        4.1003105722       -1.2096662220
 H         5.8288314731       -2.6100863753       -0.8428908561
 H         6.1262498607       -1.3448553493       -2.0244694509
 H         2.1282245680       -5.8455320612       -1.3387960144
 H         3.3840815806       -6.0505431094       -2.6908837900
 H         1.5539155636       -3.4750673139       -1.6640059087
 H         1.9211200497       -4.3500145101       -3.2167542181
 H         1.6839140406       -2.5431106577       -3.0820874903
 H         3.8553561162       -4.3996560069       -4.3039901406
 H         4.1683770304       -2.6695117589       -4.4482825477
 H         5.2704387123       -3.6483315430       -3.7975011000
 H         4.7849115039       -7.3253894577       -1.4558918320
 H         4.0712644610       -6.9587951332        0.1370536203
 H         4.6166712483      -10.7018108899       -4.5882710006
 H         3.0654069916      -10.5636271957       -3.7960540529
 H         3.8087703167       -9.0399055504       -4.3346166413
 H         4.4116271017       -9.9661321872        0.9411613513
 H         5.8149209772       -9.3469614519        0.0083167748
 H         5.3254479917      -11.0109485849       -0.1705045170
 H         2.2029856126      -10.7164671142       -0.1415355961
 H         1.8137809900      -10.8395212205       -1.8417356616
 H         3.1648713827      -11.9004266102       -1.2307298604
 Na        1.8475201669        1.0948573755       -1.2966285509
