155

 C        -5.4165240406        0.2221403125        6.9503091445
 C        -4.0925097269       -0.3081564502        6.3594105174
 C        -4.0918219016       -1.5828244022        5.4518108969
 C        -4.7908314531       -1.1694794710        4.0141749514
 C        -6.2630085274       -1.6165622272        3.7813243501
 C        -2.6176883790       -2.0281180637        5.2113577713
 C        -4.7138996567       -2.8102798984        6.2097965775
 O        -3.0078452067        0.2494061706        6.5464312981
 O        -4.1799165439       -0.5947197303        3.1992883343
 C        -7.2140174083       -0.9484951538        2.6787338270
 C        -7.9632671822        0.3873972619        3.0225060037
 C        -8.8154233816        1.1847464972        2.0027341579
 C        -7.5571703243        2.0409921728        1.4017759259
 C        -7.3982672547        3.6442556471        1.6023537707
 O        -7.6934140317        0.8800092020        4.0839240932
 O        -6.7401713075        1.4662035252        0.7471646598
 C        -9.4147539301        0.2187844940        0.8824356251
 C        -9.8553982830        2.0019033914        2.8327946159
 C        -6.0911217675        4.3375973535        1.2164588945
 C        -4.7759662373        3.9215957506        1.9439208609
 C        -3.4013968939        4.6587040595        1.4436317404
 C        -2.5164397047        3.4015827501        0.9764824246
 C        -1.8361820804        2.6008384563        2.0600318037
 C        -3.4257882077        5.7032389919        0.2871520424
 C        -2.6883469022        5.3757201502        2.6020573190
 O        -4.5951829782        3.0943357843        2.8012844588
 O        -2.4941189206        2.9833078356       -0.1608748611
 C        -1.6434694588        1.1896936655        1.5993843435
 C        -0.6330505812        0.9228353331        0.3888094958
 C        -1.0273791806       -0.0722854267       -0.8159948824
 C        -0.5223279867        0.5756882433       -2.1313976407
 C        -1.3512759676        1.6824032493       -2.8093244546
 O         0.4899136273        1.1611288568        0.6349103194
 O         0.5421673595        0.2296467332       -2.6197801469
 C        -0.3542251924       -1.4392957619       -0.6348876960
 C        -2.6338397975       -0.2393139050       -0.8764449907
 C        -0.5705484374        2.5041024671       -3.8521028534
 C         0.3932641746        3.5050049131       -3.0951329401
 C         0.7409868262        4.7254445382       -3.9258721845
 C         2.2679269573        5.0251649133       -3.4613389622
 C         3.5039374961        4.0968852176       -3.8531091161
 C         0.7083668988        4.7761150359       -5.5915044767
 C        -0.1351296404        6.0064175951       -3.4475998756
 O         0.9526647727        3.2271357433       -2.0460114147
 O         2.4915001899        5.9241504302       -2.6844514101
 C         4.2557432584        3.5789258683       -2.6476989609
 C         5.1820299507        2.3428583979       -2.7463824030
 C         5.9671827247        2.0319765331       -1.4749635413
 C         4.9793057619        1.0233848485       -0.7523465073
 C         5.4174991441       -0.4113873047       -0.3496764731
 O         5.1456706673        1.6426345056       -3.7351143433
 O         3.9261088932        1.5812368182       -0.3792966821
 C         7.2938105079        1.4121824290       -1.8034386207
 C         6.2327551173        3.1144973574       -0.3464528312
 C         5.3339069930       -1.5944001325       -1.3461255343
 C         3.9598684059       -1.9706509640       -1.8653654417
 C         3.6097777994       -3.3947104733       -2.3882252028
 C         4.1231770158       -4.5967100176       -1.3951484563
 C         3.3853259863       -5.8822949817       -1.5071582291
 C         2.0753898340       -3.3774582216       -2.5591940113
 C         4.3448293542       -3.7091127776       -3.7353174210
 O         3.1138181623       -1.1114727694       -2.0331191666
 O         5.1889506948       -4.5211273816       -0.8520922687
 C         4.1762343824       -7.1457217201       -1.1442750764
 C         3.2138865074       -8.4113569638       -1.2341564809
 C         3.9102279147       -9.8263578738       -1.2954118214
 C         4.7760003468       -9.8684132570       -2.7715771335
 C         4.2102620196      -10.3336051912       -4.0728220754
 O         2.0155186768       -8.1779723646       -1.2965221527
 O         5.8657640424       -9.2819386325       -2.6411854795
 C         4.7515867140       -9.9562880654       -0.0397078578
 C         2.8761347685      -10.9993357773       -1.4066107788
 H        -5.3562204164        0.6902455167        7.9059307641
 H        -5.7315386346        0.9267408743        6.1769919939
 H        -6.1618253421       -0.5234576458        6.9637604110
 H        -6.2210051952       -2.6794050218        3.5158204174
 H        -6.7507419629       -1.4702601667        4.7552023255
 H        -2.3008061576       -2.6019397072        6.1277676299
 H        -1.9041396928       -1.2583987146        4.8689481960
 H        -2.7362559497       -2.7220487302        4.4018435554
 H        -5.0377201513       -3.5669241001        5.4515477724
 H        -3.9405506017       -3.3217156989        6.7717979793
 H        -5.6080671916       -2.5049541703        6.7118521952
 H        -6.5818253573       -0.7297156840        1.7651771588
 H        -7.7802977088       -1.8010815099        2.3155002926
 H        -8.1389294893        4.1753159550        1.0057324273
 H        -7.7040255747        3.8111031904        2.6895787341
 H        -9.8874342131       -0.6789842517        1.3386491868
 H        -8.5340508509        0.0449054838        0.2088814053
 H       -10.1440275522        0.8733836920        0.4412059954
 H        -9.3054839242        2.5997067395        3.6019064225
 H       -10.2125599956        2.7925616348        2.1154286218
 H       -10.4814203187        1.2808417589        3.4031986893
 H        -6.2833122725        5.4277038152        1.3569747596
 H        -6.1886911775        4.2555732658        0.0846759776
 H        -0.8750515474        3.0813221969        2.2043328311
 H        -2.4439498644        2.7555321222        2.9791087690
 H        -2.3506256284        5.8455213373        0.0133303378
 H        -3.8883613328        6.6419401407        0.5465653182
 H        -3.9302942599        5.2455386970       -0.5919842053
 H        -3.2382471977        6.1639004633        3.1230786891
 H        -2.2758816524        4.6401907610        3.2475958375
 H        -1.9021220473        5.9345520434        2.2029056041
 H        -1.0315716406        0.8349981885        2.4139986394
 H        -2.4762529857        0.5873562828        1.3377678108
 H        -2.1171565186        1.1108075656       -3.3910681424
 H        -1.9161091253        2.2909008458       -2.0839973618
 H         0.4479675801       -1.3746328572        0.1145565653
 H         0.0528886131       -1.7488069495       -1.6121696651
 H        -1.0925110324       -2.1774185096       -0.2926421548
 H        -3.1508643534        0.7030208438       -0.8197633913
 H        -2.8194747264       -0.7921394158       -1.8040799772
 H        -3.2000991524       -0.7273059020       -0.1066613209
 H        -1.2626752693        3.1139786991       -4.4137330947
 H        -0.0265573470        1.8026088685       -4.4575356512
 H         3.1380741700        3.2788532042       -4.3602462046
 H         4.1801607266        4.7419041309       -4.4981587916
 H         1.0800697300        3.8773773392       -6.0378840603
 H         1.3017003553        5.6688927862       -5.8250899614
 H        -0.3001267983        5.0314950218       -5.9223153202
 H        -1.0375556230        6.1065894302       -3.9276405139
 H        -0.2658535279        5.9294147012       -2.3582490261
 H         0.6075950795        6.7805846301       -3.5731647538
 H         4.9427007200        4.4099915434       -2.2634594599
 H         3.5351609728        3.4147799437       -1.7771752815
 H         6.5376437956       -0.3830451198       -0.2120910240
 H         4.9761667861       -0.7399813799        0.6273166233
 H         7.6838058222        1.0028863727       -0.8894254030
 H         8.0128296104        2.2061994814       -1.9322697859
 H         7.3129814810        0.7591908350       -2.6929716037
 H         5.4546453594        3.7530797949        0.1228064290
 H         6.7976497785        2.7328417747        0.5324976017
 H         6.9468437559        3.8744337506       -0.7079046151
 H         5.7231163305       -2.4711671356       -0.7975979026
 H         6.0284191965       -1.4818936254       -2.1830092191
 H         2.4689961615       -5.9632196698       -0.9667027903
 H         3.2712110717       -5.8629900857       -2.6461134928
 H         1.6206755246       -3.8228740807       -1.6310392600
 H         1.8635912610       -4.0168794963       -3.4299694495
 H         1.6843030070       -2.3348144062       -2.6462194941
 H         3.9687670941       -4.5805585493       -4.1862336766
 H         4.3705159890       -2.9476582948       -4.5110426103
 H         5.4512538071       -3.8840236124       -3.6832669426
 H         5.0020385870       -7.3706389723       -1.8368504227
 H         4.6886070416       -7.1666231787       -0.1093440906
 H         4.6408532786      -11.3046881375       -4.3585732159
 H         3.1508262354      -10.4840269242       -4.1298626984
 H         4.4570171649       -9.6024021231       -4.8339616215
 H         4.0932090497       -9.8120355922        0.8618814277
 H         5.4234742978       -9.1168042843       -0.0567906102
 H         5.3325443628      -10.9288171295        0.0008896273
 H         2.2647290395      -11.1369777943       -0.5756347582
 H         2.2108746695      -10.7815382479       -2.1789185174
 H         3.3035507280      -11.9170567459       -1.6502620591
 Na        2.0373854825        1.2031427001       -1.3358251388
