155

 C        -5.5117738003        0.4481916723        6.8419970982
 C        -4.3017345130       -0.0840677485        6.1549094462
 C        -4.1824671258       -1.5379535284        5.4629218451
 C        -4.8637578309       -1.3945658800        4.0591198683
 C        -6.3596763497       -1.5018129163        3.9743130645
 C        -2.7536327155       -2.0225763112        5.2290869961
 C        -4.9820573005       -2.5171211272        6.3487866562
 O        -3.2537515472        0.5576164936        6.2158965108
 O        -4.2682646135       -0.9483358763        3.1089504201
 C        -6.9310739446       -0.8194591289        2.7291789111
 C        -7.7387760815        0.3850409090        3.0644343236
 C        -8.4635060294        1.0662797171        1.8851283558
 C        -7.4540928858        1.9793396455        1.1780310566
 C        -7.4192862978        3.5018972333        1.4603382557
 O        -7.8660777957        0.8785999136        4.1918767804
 O        -6.7004692449        1.5193668832        0.3577648543
 C        -9.0247332548        0.0616677389        0.8620206295
 C        -9.5380612620        1.9532704354        2.5600077361
 C        -6.1234674413        4.1006405703        0.9261798161
 C        -4.9543315796        3.5436779058        1.7364084492
 C        -3.5037723270        4.3199095185        1.3068515142
 C        -2.4651217010        3.2317563717        0.8861604342
 C        -1.7963896754        2.4386049740        2.1017424404
 C        -3.5034651192        5.2275903509        0.0565522058
 C        -3.1451031335        5.0548989013        2.6347718616
 O        -4.9439707221        2.8765637006        2.7225958179
 O        -2.4337856224        2.7282210299       -0.2215661798
 C        -1.4078618625        1.0818778066        1.5463572128
 C        -0.6356999321        1.0214547846        0.2032951788
 C        -1.1898574461        0.0621800177       -0.9234151179
 C        -0.5350508029        0.5920827985       -2.3069841082
 C        -1.4321028110        1.5275131157       -3.1127840821
 O         0.4105689359        1.5305364205        0.1563690888
 O         0.6123177958        0.3623055088       -2.6456029668
 C        -0.5176890993       -1.3402898461       -0.6281101284
 C        -2.7539863706       -0.0504893707       -0.9919635201
 C        -0.5319104428        2.4498466392       -3.9036035935
 C         0.1668931777        3.5099234709       -2.9672319026
 C         0.7342634848        4.8488083200       -3.5596573537
 C         2.3142879749        5.0014447447       -3.1882000087
 C         3.1748040630        3.6537468218       -3.3902397377
 C         0.7024325676        5.1564290909       -5.0666539988
 C        -0.0286265221        6.0372489766       -2.9359169109
 O         0.3961057834        3.3180808330       -1.8027265617
 O         2.8099643988        6.0769873562       -2.9780292131
 C         4.1424097171        3.6888301438       -2.3259321561
 C         5.0479532230        2.5178198666       -2.3300796350
 C         5.8709840188        2.0463958883       -1.0578288194
 C         4.9552991924        1.0230066047       -0.3453899782
 C         5.4926442182       -0.4087829621       -0.3770243346
 O         5.2515131149        1.8743304896       -3.3324387856
 O         3.9814787435        1.2757678601        0.4384438704
 C         7.2279183944        1.4199793741       -1.6126007166
 C         6.2133400421        3.2358721835       -0.1445401929
 C         5.1631082733       -1.2757679187       -1.6204353407
 C         3.7830930951       -1.9513909593       -1.6984805038
 C         3.6704040896       -3.2334595673       -2.5212161796
 C         4.2878295433       -4.4033418508       -1.4983295283
 C         3.5106281519       -5.7094361025       -1.2728245183
 C         2.1773426532       -3.4032456633       -2.9227716731
 C         4.4977108007       -3.3360442380       -3.8557523500
 O         2.7890224911       -1.4714303030       -1.1406019637
 O         5.3020264747       -4.2039686638       -0.9271479649
 C         4.4039054978       -6.9810620531       -1.2884715140
 C         3.4816179910       -8.2694332472       -1.3750987863
 C         4.0813782827       -9.7616659110       -1.6813101314
 C         4.8354726938       -9.8387509890       -3.0442445121
 C         4.7130139497      -10.8530271979       -4.1712009353
 O         2.2905675021       -8.1425705265       -1.4153857374
 O         5.7598851557       -9.0139114400       -3.1091861093
 C         5.1585121769      -10.1574763804       -0.5030772550
 C         2.8833252282      -10.7648165956       -1.6287909784
 H        -5.5228992244        1.5011190376        6.6560005420
 H        -6.4470653257       -0.0123855606        6.3767534364
 H        -5.5584049842        0.1888307804        7.9215936800
 H        -6.5537716479       -2.5942963652        4.0149092597
 H        -6.8134629808       -1.0265429943        4.8770851920
 H        -2.1836031160       -1.9394526264        6.1851967997
 H        -2.3467533215       -1.5121089772        4.3754705059
 H        -2.7654917498       -3.0318695576        4.9686390358
 H        -4.9727188087       -3.5418563870        5.8891383206
 H        -4.5292507866       -2.5468469475        7.3115339167
 H        -5.9685228917       -2.1218734305        6.5070765975
 H        -6.0341957092       -0.5147989982        2.1015143413
 H        -7.4036166627       -1.5442240526        2.0449474756
 H        -8.2643656074        3.8705477355        0.8812496219
 H        -7.3053841926        3.9859629681        2.4613000717
 H        -9.4293205530       -0.7751136891        1.4475883053
 H        -8.1680512675       -0.2955756223        0.3766615594
 H        -9.7183789553        0.5795067067        0.2842219516
 H        -8.9441659846        2.5642633159        3.2544390226
 H       -10.1613800914        2.6544399025        1.9302612902
 H       -10.2736306828        1.2544590547        2.9981959711
 H        -6.2405225642        5.1405512544        1.1302121517
 H        -5.9270597917        3.9721031914       -0.1738456748
 H        -1.0480127653        3.1567460821        2.4375257828
 H        -2.4526743793        2.3676001428        3.0030961850
 H        -2.4625866901        5.3940223981       -0.3008402701
 H        -3.9476434926        6.1936253447        0.2624029061
 H        -4.0608106022        4.7053590696       -0.7115204368
 H        -3.6405584535        6.0675643504        2.6447548452
 H        -3.5535706883        4.4727911015        3.4413539690
 H        -2.0956968691        5.2914064133        2.7198122846
 H        -0.6277490633        0.7055111356        2.2601542694
 H        -2.3153333446        0.4714003636        1.5431297851
 H        -2.0223622663        0.8743531056       -3.7687097083
 H        -2.1489161468        2.1325702441       -2.5713174101
 H        -0.7475854904       -1.7027576067        0.3974103106
 H         0.5500760330       -1.3416983281       -0.9265974664
 H        -1.0440824228       -2.0472521171       -1.2851544989
 H        -3.2423080793        0.8567467808       -0.5670597567
 H        -3.1356647341       -0.2244511525       -2.0313401119
 H        -3.1241018404       -0.8646248190       -0.3559524688
 H        -1.1693433869        3.0333858514       -4.5467784734
 H         0.2404261120        1.9886853995       -4.4556580786
 H         2.5461679437        2.8492383552       -3.1957841717
 H         3.7231763846        3.5641241287       -4.3902509424
 H         1.4534778247        4.6770689789       -5.6931016089
 H         0.8108980716        6.2265880039       -5.1404593789
 H        -0.2442887038        4.8194983816       -5.3639763967
 H        -0.9773916838        6.0797433300       -3.3389933095
 H         0.1589299922        6.0226907656       -1.8471913519
 H         0.5165038006        6.9302046747       -3.3388563765
 H         4.8408279863        4.5516168082       -2.4562353887
 H         3.5803492015        3.7996740697       -1.3482003992
 H         6.5902360143       -0.4127260022       -0.4328848359
 H         5.1823380459       -0.9168499702        0.5203267180
 H         7.8376616939        1.1567413495       -0.7487171528
 H         7.6787300734        2.2736263672       -2.2111146233
 H         7.0841892948        0.4880905229       -2.2148462497
 H         5.3398137963        3.4085379392        0.5447049911
 H         7.0988298784        3.0623012769        0.5204480322
 H         6.1414069604        4.2312907533       -0.5793130794
 H         5.9441949072       -2.0223158735       -1.7954384131
 H         5.1944084307       -0.6143984845       -2.4904490320
 H         3.1918436601       -5.6224291661       -0.2489436249
 H         2.6080398228       -5.7802712375       -1.9111916461
 H         1.6070749969       -3.8188037562       -2.0814198274
 H         2.1148836326       -4.1145112154       -3.7229450108
 H         1.9232230527       -2.4140195108       -3.3464423635
 H         4.5094359001       -4.3145247653       -4.2482738298
 H         4.1225755144       -2.8178721444       -4.6767252272
 H         5.5494525413       -3.0534358258       -3.8263119898
 H         5.2192184236       -7.1377014389       -1.9719704134
 H         4.9575384783       -7.1850833658       -0.3104170753
 H         4.1597756637      -11.8047246553       -3.8596101366
 H         4.0444161340      -10.4968633864       -5.0094111073
 H         5.6242760335      -11.2365776467       -4.6794712959
 H         4.6672582566      -10.0868584512        0.4853491332
 H         5.9662699912       -9.4595611427       -0.5989825864
 H         5.3913374662      -11.2008392259       -0.6148548364
 H         2.2327702122      -10.7521442245       -0.7076966304
 H         2.3122171542      -10.6678990424       -2.5663138495
 H         3.2764423507      -11.8254770198       -1.6425758856
 Na        2.2123112936        0.8624205556       -1.0303711257
