155

 C        -5.4118164638        1.2993289826        6.1847517593
 C        -4.3139664323        0.4889255640        5.5290928304
 C        -4.3002020035       -1.1004028927        5.5196212600
 C        -4.7344541984       -1.4533154428        4.0341784279
 C        -6.2209970973       -1.2406256432        3.7627695539
 C        -2.8522682797       -1.6182403243        5.7803401639
 C        -5.2109576284       -1.7550811360        6.5430953098
 O        -3.3936199194        0.9981119901        4.8257807360
 O        -3.9331143964       -1.8560719979        3.2555121689
 C        -6.4638829989       -0.2444274133        2.6553625502
 C        -8.0312807558        0.4343495198        2.6993197185
 C        -8.7610828293        0.7774876402        1.3497157732
 C        -7.7694690395        1.6684979938        0.6093962748
 C        -7.6489393867        3.1888447218        1.0996491643
 O        -8.4733716569        0.6630308882        3.7666566566
 O        -6.9082846087        1.1450660034       -0.0792319648
 C        -8.8122326477       -0.6104907825        0.5033155707
 C       -10.1474872247        1.3339533667        1.7143671284
 C        -6.3392164796        3.8717079884        0.6850252539
 C        -5.0781263146        3.3693201413        1.4433189341
 C        -3.5958937992        3.9476501880        1.1939683256
 C        -2.6462800043        2.5812548068        0.9519742273
 C        -2.4259385895        1.6496708086        2.0589716680
 C        -3.6531521169        4.6819806003       -0.1572958840
 C        -3.1378266248        4.7902705006        2.3716419838
 O        -5.1931189861        2.6149147753        2.3566601405
 O        -2.3107527014        2.2496613537       -0.1896018635
 C        -2.3617000463        0.1535935122        1.6782037061
 C        -1.2991412945        0.1205603020        0.6141083667
 C        -1.4304205146       -0.2241434885       -0.7916947460
 C        -0.6150538436        0.8506202153       -1.6461552222
 C        -1.3702454844        1.8142599088       -2.6878666638
 O        -0.1729853835        0.1650466109        1.1298972968
 O         0.5761202043        0.9649610802       -1.5531063079
 C        -0.7157669728       -1.5642328847       -1.0086586938
 C        -2.9254420434       -0.2090976006       -1.1342472792
 C        -0.4299622711        2.8427208896       -3.2729812319
 C         0.0532422356        3.9483915343       -2.3043319170
 C         0.8249821213        5.1338751447       -3.0301029632
 C         2.3696634993        4.9487319779       -2.8620804578
 C         2.9648943034        3.6368586833       -2.2026610615
 C         0.5753763434        5.1897894381       -4.5556066786
 C         0.3538235938        6.4794598463       -2.4168169986
 O        -0.0716527055        4.0420937934       -1.1217815933
 O         3.0652213305        5.8433749061       -3.3096360296
 C         4.4841740061        3.8585097473       -2.1168599749
 C         5.3100135490        2.5977857499       -1.7458905538
 C         5.8738255628        2.2640267263       -0.2845448127
 C         4.8399511793        0.9870219262        0.1769034445
 C         5.2651296287       -0.6230216710        0.1291069878
 O         5.5850477549        1.7710272478       -2.6220240360
 O         3.7848768517        1.2912885180        0.5768883704
 C         7.3734645269        1.7984237458       -0.5289568066
 C         5.8185815168        3.3373701176        0.8606884931
 C         5.3986323195       -1.3660885354       -1.1874754411
 C         4.0120449834       -1.8575861311       -1.6401833881
 C         3.8485998110       -2.9821765411       -2.8358704314
 C         4.4137376433       -4.2663632786       -2.2929511804
 C         3.7433413491       -5.5797295898       -2.2493466084
 C         2.3831804442       -3.1284445209       -3.1427650044
 C         4.8289621489       -2.3736420547       -3.8896511161
 O         2.9878971839       -1.4060993214       -1.1772295918
 O         5.6146923326       -4.1719697973       -2.0490943758
 C         4.7051528783       -6.6924104276       -1.7433960667
 C         3.9253345717       -8.1165584163       -1.9407109196
 C         4.7140557992       -9.4433158609       -2.0985221601
 C         5.2268137693       -9.5469035727       -3.6900380048
 C         6.0440851826      -10.7108316942       -4.0849948638
 O         2.7385397415       -8.1863833386       -2.0129678510
 O         4.9490956415       -8.6305802321       -4.4503157817
 C         5.9714139277       -9.3659015598       -1.2573516286
 C         3.9231396965      -10.6836830321       -1.6922395705
 H        -5.2223309388        2.3737411896        6.0440607456
 H        -6.4709297467        1.0595049687        5.7893110865
 H        -5.2856172310        1.2359445368        7.2697453079
 H        -6.7324477172       -2.1869644880        3.5143025243
 H        -6.7749555241       -0.9106858165        4.6661292559
 H        -2.5239446674       -1.5098546574        6.8078762184
 H        -2.1123216583       -1.1161561522        5.1905042214
 H        -2.9020472944       -2.6523338397        5.4506200909
 H        -5.4281398651       -2.7607130594        6.3132082842
 H        -4.7251682307       -1.9013671610        7.5293582671
 H        -6.1561818438       -1.3021840171        6.5876201363
 H        -5.7844302135        0.6101656178        2.9312500798
 H        -6.1727786647       -0.5825003503        1.6646127668
 H        -8.4088279110        3.8514555122        0.6212870036
 H        -7.8533934258        3.2812003568        2.1735197356
 H        -9.8179337799       -0.6576442517        0.0914011652
 H        -8.6668972026       -1.5076805880        1.1333589755
 H        -8.0992477234       -0.6553272007       -0.2672522935
 H       -10.1007012819        2.1637388054        2.3871956334
 H       -10.5626928116        1.9040533379        0.8642004725
 H       -10.8318250755        0.6774843342        2.2400342796
 H        -6.3535632631        5.0190904146        0.8542252556
 H        -6.2066208298        3.7615644903       -0.3823304620
 H        -1.5179670910        1.8152532606        2.6718701167
 H        -3.3491217748        1.7687359162        2.6591371507
 H        -2.6965398219        4.9881531147       -0.5330497814
 H        -4.2571087992        5.5208608451       -0.0203036491
 H        -4.0787362241        4.0498067569       -0.9532104612
 H        -3.6807009482        5.7650835470        2.3476300101
 H        -3.3259149873        4.1638099162        3.2844312685
 H        -2.0689262467        4.9784300588        2.3332962821
 H        -2.0056418485       -0.3702423825        2.5676530767
 H        -3.3283862723       -0.3502129649        1.5439052556
 H        -1.6206638786        1.1506406027       -3.5423667339
 H        -2.2652174639        2.2769768119       -2.2820042137
 H        -0.0802169631       -1.5878740628       -1.8661135606
 H        -1.4999040013       -2.2662297084       -1.2776603495
 H        -0.1591803641       -1.9640360268       -0.1488622986
 H        -3.5167817818        0.5557439865       -0.6103181471
 H        -2.9580372678       -0.0255025423       -2.2259384212
 H        -3.4603727419       -1.1607632624       -0.8752338364
 H        -0.9177563498        3.4061069949       -3.9939722015
 H         0.4077220541        2.3872331721       -3.7798499740
 H         2.4228609891        3.2970071587       -1.2681075473
 H         2.7425030887        2.8386218925       -2.8881698168
 H         1.0979783243        4.4904133029       -5.1280487005
 H         0.8220930119        6.2026093553       -4.9015333576
 H        -0.5409333908        5.1886259255       -4.6995211262
 H        -0.6788979635        6.5220032118       -2.4894234192
 H         0.4402610396        6.3955621877       -1.2817311473
 H         0.9407691980        7.3021604389       -2.8732474708
 H         4.9618215853        4.2010586057       -3.1506193366
 H         4.6900087916        4.6396923144       -1.4052936166
 H         6.2769669263       -0.7900628665        0.4948072953
 H         4.5261607431       -1.0191477891        0.8508640246
 H         7.7495695067        1.3315669214        0.3922685870
 H         8.0610957637        2.6224796106       -0.6842941415
 H         7.1566327539        1.2054541129       -1.4398926738
 H         4.7867429127        3.6227360506        1.0828934431
 H         6.2344327245        2.9121032639        1.8066547650
 H         6.4764779806        4.1602621283        0.5414058460
 H         5.9807345920       -2.2699067139       -1.0633043290
 H         5.9316098078       -0.8211639705       -1.9638717931
 H         2.8798251956       -5.6555774425       -1.6197317620
 H         3.3717302173       -5.7873672433       -3.2573462816
 H         1.8809704336       -3.3459179754       -2.1975000160
 H         2.2807765685       -3.9273425896       -3.8498051303
 H         1.8861257909       -2.2366387933       -3.4211412650
 H         4.7856933250       -2.6351025755       -4.8720856803
 H         4.7897634235       -1.2924561734       -3.8248707022
 H         5.8831856946       -2.5806723535       -3.6518204039
 H         5.6734481979       -6.5841531343       -2.3655350673
 H         4.8944920176       -6.5027557430       -0.6789681406
 H         7.1614670511      -10.5011526156       -3.9277515708
 H         5.8148901917      -11.5717927952       -3.4460006028
 H         5.9293209455      -11.1977637516       -5.0571427191
 H         5.6004286524       -9.5539135690       -0.2661326089
 H         6.4363656789       -8.4132930727       -1.3943666999
 H         6.6702838566      -10.1568192435       -1.6199370872
 H         3.4827531049      -10.4536448922       -0.6510254031
 H         3.0660967213      -10.8212683909       -2.4292377264
 H         4.5784542128      -11.6182839292       -1.5097594418
 Na        1.8048197876        0.2762829556        0.0037294894
