155

 C        -5.6832315113        1.4229104761        5.5856507601
 C        -4.2864319726        0.7233666702        5.3623317227
 C        -4.3160057571       -0.8648273177        5.5705192918
 C        -4.9399222204       -1.4473655382        4.2624879427
 C        -6.4967005581       -1.2452613980        3.8897007208
 C        -2.8675936390       -1.3669789319        5.7360491215
 C        -5.1627696866       -1.4248179703        6.7369101545
 O        -3.1991771299        1.1766864494        5.1360769141
 O        -4.2466448849       -2.1965870287        3.5708921750
 C        -6.7604981629       -0.0422909914        2.7981262292
 C        -8.2226845669        0.2815889923        2.6262128113
 C        -8.6747678224        0.4627039262        1.0877994373
 C        -7.6805128774        1.5914297857        0.3665212322
 C        -7.9067002838        3.0745756059        0.5690726222
 O        -9.0206448659        0.4368399797        3.4518652562
 O        -6.7193133237        1.2099149921       -0.2814083936
 C        -8.5847555241       -0.8429449303        0.2453111473
 C       -10.0629340428        1.0564249804        1.0522550015
 C        -6.5391479681        3.6828724926        0.5224657036
 C        -5.4957222177        3.4453432774        1.7174586686
 C        -3.9263207504        3.8575607304        1.5014276099
 C        -3.1374114332        2.5249816891        1.1043935221
 C        -3.0190385688        1.3891652954        2.0673841863
 C        -3.7262490899        4.7254601485        0.1099455634
 C        -3.4736072559        4.4516036568        2.8196471568
 O        -5.8764787365        3.1535120896        2.8465643990
 O        -2.8577942808        2.2737156792       -0.0260427653
 C        -2.8396898302       -0.0096521229        1.4403203860
 C        -1.4980684423       -0.3348714747        0.8401912853
 C        -1.3059621651       -0.4689430153       -0.7163995298
 C        -0.3503425976        0.7747895847       -1.3144843980
 C        -0.7792961297        1.6604696573       -2.4571079344
 O        -0.5204620528       -0.2268885316        1.5793649118
 O         0.7651646511        1.1018492546       -0.9002544214
 C        -0.5037124257       -1.7327630085       -1.1920251451
 C        -2.5792282718       -0.4772762435       -1.7187730537
 C         0.2855317775        2.5665417967       -3.0322975000
 C         0.3076879366        3.9317121733       -2.3515207714
 C         1.1635780625        5.2079896029       -2.8703684860
 C         2.6386773170        4.9847993018       -2.6123722748
 C         3.1468012065        3.8629718878       -1.6942674988
 C         0.9512328404        5.3507976976       -4.4316796131
 C         0.7198954309        6.4555581791       -2.0934659890
 O        -0.3221016690        4.1030674302       -1.3658779807
 O         3.4114273807        5.7568439078       -3.1483839979
 C         4.6256101991        3.7161678707       -1.8936655932
 C         5.1269125780        2.3281819951       -1.6552714156
 C         5.5353979270        2.0155267960       -0.2364021385
 C         4.4725547742        0.9887073823        0.3091742027
 C         4.7746773855       -0.5940393273        0.4050319426
 O         5.3058974915        1.4892347022       -2.5346536354
 O         3.3387784100        1.4107503014        0.6253397897
 C         6.9602944273        1.4555611251       -0.2058447450
 C         5.3207133610        3.0958324022        0.8488575935
 C         5.0740465030       -1.0681189201       -1.0347570546
 C         3.9150688041       -1.8799349069       -1.6936893422
 C         4.1570673577       -2.6801068794       -3.0300066116
 C         4.8426102534       -3.9710600700       -2.5142180922
 C         4.1294287726       -5.2783713268       -2.8952597971
 C         2.8036066886       -2.7117159459       -3.6735360987
 C         5.0821277288       -2.0152012692       -4.0947076339
 O         2.8906440778       -2.0294885249       -1.0382439071
 O         5.8604812050       -3.8751333874       -1.8855278015
 C         5.1185314096       -6.4166995958       -2.7775365050
 C         4.4312544780       -7.7299625470       -2.2200097273
 C         5.1942526790       -9.0196305298       -2.3530546445
 C         5.5351533540       -9.3610435874       -3.9876747657
 C         6.6947570452      -10.2752468994       -4.2793279022
 O         3.2735244651       -7.6498129814       -1.8198611547
 O         4.7975082146       -8.9193603369       -4.8711950027
 C         6.5504183382       -8.9949256851       -1.5267653353
 C         4.1621039596      -10.1528895432       -1.9472883185
 H        -5.7565668283        2.3741260829        5.0025808215
 H        -6.5222383892        0.7548799564        5.4342281925
 H        -5.7170181238        1.7469957771        6.6409655413
 H        -6.7455893860       -2.2854233018        3.5855504111
 H        -7.0775424541       -1.0886595023        4.8343659741
 H        -2.4427207755       -0.9952961980        6.5963351327
 H        -2.3199631568       -1.1960242067        4.8225660587
 H        -2.8295637037       -2.4693696644        5.8739979034
 H        -5.3278406649       -2.4522136032        6.6192477078
 H        -4.7582238900       -1.2142427649        7.7083037586
 H        -6.1345591217       -0.9343362676        6.8501667731
 H        -6.2141499594        0.8532580233        3.0557892507
 H        -6.3596037102       -0.5074870501        1.8484465880
 H        -8.6206910723        3.4603992041       -0.1359950792
 H        -8.4658707721        3.2878505517        1.4640737933
 H        -8.6960745098       -0.7556741802       -0.7886112928
 H        -9.2746217721       -1.5918867992        0.6429543330
 H        -7.5826239832       -1.3132178903        0.3629885608
 H       -10.0075639356        2.0854230461        1.4847620429
 H       -10.4630947055        1.2641752024        0.0122836540
 H       -10.9118808114        0.4652086469        1.4628596749
 H        -6.5871493241        4.7789661646        0.3575417380
 H        -6.0151423657        3.2948920748       -0.4341674694
 H        -2.3140276782        1.5005291457        2.8718871055
 H        -3.9846241278        1.2223037002        2.4865810708
 H        -2.7615010823        5.0926754046       -0.1085632285
 H        -4.4006026866        5.5871545993        0.1725195747
 H        -4.0589168086        4.2075980833       -0.7542478964
 H        -3.9528113934        5.4097273735        2.8487574699
 H        -3.9792005302        3.9059159009        3.6331974956
 H        -2.3860071040        4.6768673993        2.9043071320
 H        -2.8775173474       -0.6985088505        2.2521020728
 H        -3.6667322407       -0.1403152431        0.7918574984
 H        -1.2815085654        1.1545212865       -3.3190744891
 H        -1.4805391049        2.4352173442       -2.0680393925
 H         0.3170315821       -2.0406180397       -0.5357866200
 H        -0.0135375964       -1.5703950896       -2.1483544294
 H        -1.1826850345       -2.5583697591       -1.3804292313
 H        -3.0190658529        0.5186986610       -1.6577708669
 H        -2.1866984169       -0.8975352806       -2.6406130569
 H        -3.3997921478       -1.1378081509       -1.3632188634
 H         0.0338188043        2.6979132494       -4.1151647166
 H         1.3044009100        2.2456901640       -2.9186553853
 H         2.9457606913        4.1608153973       -0.6847659648
 H         2.5271198879        2.9841407102       -1.9528004695
 H         1.4684006830        4.5901727707       -5.0120687198
 H         1.2189905264        6.2724582672       -4.8849252694
 H        -0.1103533223        5.1819483882       -4.6568132827
 H        -0.4127956184        6.3478762814       -2.0240912189
 H         1.1797777795        6.4633070399       -1.1215830763
 H         0.9604801911        7.3468749571       -2.6166003227
 H         4.9362991590        4.0281687201       -2.8441410691
 H         5.2127753042        4.4624493639       -1.3032329584
 H         5.7247358172       -0.6923794573        0.9770891363
 H         4.0101009171       -1.1832603106        0.9772633361
 H         6.9578883754        0.8486135188        0.7125621862
 H         7.6861404443        2.2277694279       -0.4359148538
 H         6.9756629352        0.7539774053       -1.0569492694
 H         4.2987584669        3.5086394281        0.7891144945
 H         5.5367279280        2.5050886682        1.7639380462
 H         5.9652207548        4.0122674804        0.6731988952
 H         5.9435163300       -1.7439007840       -1.0386258505
 H         5.3211571436       -0.2910362493       -1.7624858417
 H         3.1912073066       -5.4755607721       -2.3018811383
 H         3.9239422772       -5.3526752126       -3.9654977295
 H         2.0321755467       -3.0474921821       -2.9985864950
 H         2.6062916896       -3.2609988280       -4.6142555981
 H         2.7570402462       -1.6726465644       -3.9630570054
 H         4.6135002495       -2.1366851609       -5.0463741921
 H         4.9951023276       -0.9408511177       -3.9971276475
 H         6.0778447258       -2.3464687100       -4.2690572400
 H         5.4916247313       -6.5178990324       -3.7807131808
 H         5.9517079514       -6.0653764263       -2.0836078262
 H         7.5162772674       -9.7026515088       -4.7069961719
 H         7.1087650270      -10.6768601289       -3.3302168807
 H         6.6344900110      -11.1474263817       -5.0193084827
 H         6.3783438192       -9.2202901390       -0.4913468184
 H         6.9835480291       -7.9962451255       -1.7072985904
 H         7.0644891311       -9.8421931720       -1.9123545763
 H         3.8112569789      -10.1916464624       -0.8648062684
 H         3.3254103243      -10.0225579937       -2.6841154419
 H         4.6651102318      -11.1394265248       -2.2478220041
 Na        1.6869362526       -0.4159311772        0.4885435383
