155

 C        -5.4858352316        2.1192007769        6.7013537178
 C        -4.6150932400        1.0496239606        6.0095043481
 C        -5.1104231416       -0.4701061336        5.9262298856
 C        -5.4123340677       -0.9026432858        4.3613426540
 C        -6.5096224187       -0.1013528764        3.6536884687
 C        -3.9713436422       -1.2667265497        6.5805780530
 C        -6.3733232527       -0.8027416768        6.6660856194
 O        -3.5732694965        1.3720435125        5.5396394013
 O        -4.6824632828       -1.6360476580        3.6515668957
 C        -7.3305145907       -1.0790689732        2.6483959075
 C        -8.5748726572       -0.5558420698        1.9346817451
 C        -8.5131348093       -0.2100263396        0.4060493443
 C        -7.4358029881        0.8601289593        0.4008587257
 C        -7.7518039719        2.2750406856        0.8114694212
 O        -9.6496940068       -0.3708202294        2.4874466253
 O        -6.2896752796        0.4744334954        0.2100311553
 C        -8.2251599319       -1.4814369074       -0.3811133060
 C        -9.8977266002        0.3921768606       -0.1626419801
 C        -6.5752783944        3.1603284840        0.6530689650
 C        -5.6140762196        3.0686168335        1.8307497580
 C        -4.1534984166        3.4334404852        1.7699635554
 C        -3.3245243928        2.3757148425        0.8573195002
 C        -3.1611821983        1.0402858718        1.6488239426
 C        -3.9863881703        4.7652225606        1.0457229318
 C        -3.6901285301        3.5459631819        3.3298481098
 O        -6.1303561106        2.8251544383        2.9166889125
 O        -2.9763473050        2.5747193131       -0.2664681493
 C        -3.0203529289       -0.1946664760        0.7489341007
 C        -1.7145675753       -0.0843791652        0.0000762509
 C        -1.6821156729       -0.2611010234       -1.6255272494
 C        -0.7623279823        0.9052890811       -2.1959422200
 C        -1.3981748044        2.0812550031       -2.9890202316
 O        -0.7234202473        0.0730567564        0.6159630127
 O         0.4418145217        0.8558636012       -2.1123574017
 C        -1.1170035821       -1.6692442260       -2.0097574754
 C        -3.0277376231       -0.2273677140       -2.3826964911
 C        -0.4241032726        3.1404102845       -3.4446951029
 C         0.2264181803        3.8597899750       -2.1452450918
 C         1.2796709110        4.9917389632       -2.3523791154
 C         2.6553432386        4.3484564535       -2.2345355151
 C         3.0776095401        3.4559480345       -1.0292098887
 C         1.2103214497        5.6801668841       -3.7552476661
 C         1.0702801704        6.1615466335       -1.3260366494
 O         0.1189991369        3.3086580974       -1.1225395133
 O         3.3975387698        4.3538622069       -3.2121679924
 C         4.6197171721        3.6025684514       -0.6808591286
 C         5.3519973406        2.2714612774       -0.5403680153
 C         5.2796020490        1.6300403532        0.9786941639
 C         4.3886153904        0.3677242956        0.7814925043
 C         4.7421689561       -1.0767893227        1.2730584515
 O         5.8156916526        1.6129329823       -1.4107181054
 O         3.2618724124        0.6099023712        0.3591295666
 C         6.7707518214        1.3188078034        1.3064978077
 C         4.7287966262        2.5162262982        2.1050505517
 C         5.1783989294       -1.6874302783       -0.1665808827
 C         4.0037188869       -2.1732430880       -0.9694949570
 C         4.2132944538       -2.4131548847       -2.4979148545
 C         5.2977888590       -3.5493883723       -2.7845311436
 C         5.1948467419       -4.3017537832       -4.1139293651
 C         2.8921895357       -2.6435456104       -3.2510391097
 C         4.9548059951       -1.1689633013       -3.1202708140
 O         2.8840375638       -2.3265464330       -0.4291023880
 O         6.1778182867       -3.7551108192       -1.9445406478
 C         6.0159677716       -5.5625357455       -4.1083524689
 C         5.4165534780       -6.5601686224       -3.1463540866
 C         6.2384044305       -7.9209534254       -2.9935626432
 C         6.2400688075       -8.7590232990       -4.4749076362
 C         6.6592805688      -10.1651189706       -4.5673219298
 O         4.3720878883       -6.3552333086       -2.6515311112
 O         5.7175678756       -8.1636677053       -5.4075147737
 C         7.7610049293       -7.7641311903       -2.6642042464
 C         5.5612418556       -8.7800460828       -1.9049540898
 H        -6.5671356756        2.0079534844        6.5381795755
 H        -5.4102896114        1.9006442846        7.7542190959
 H        -5.2488217642        3.1458527047        6.4074788524
 H        -7.1652675704        0.5334102639        4.3131687415
 H        -5.9828332941        0.7044851349        3.0924992334
 H        -3.8179502913       -0.8859056451        7.5798406047
 H        -2.9924471894       -1.3384250463        6.0634391576
 H        -4.3218580791       -2.3231785863        6.7049099926
 H        -6.8377574894       -1.5712113936        6.0373435660
 H        -6.2599398040       -1.0037294920        7.6990672173
 H        -7.0417511120        0.0654465684        6.4743105670
 H        -6.4966534768       -1.3411460725        1.9366128112
 H        -7.6113040735       -1.9960700336        3.1655163084
 H        -8.3046705584        2.6403337345       -0.0614479033
 H        -8.3092877989        2.3139700209        1.7514525832
 H        -8.4780000948       -1.5171697979       -1.4082341207
 H        -8.6191991640       -2.3710949725        0.0622185590
 H        -7.1008229988       -1.6399192327       -0.3693307934
 H        -9.9112790921        1.4286065119        0.0682795605
 H        -9.9659348614        0.4255444885       -1.2359337355
 H       -10.6262658086       -0.3195271334        0.1547126232
 H        -6.8557742173        4.2342380238        0.5592525621
 H        -6.0163117427        2.8031052232       -0.3072404809
 H        -2.2589016009        1.0587834030        2.2454053535
 H        -3.8492426711        0.8553349171        2.4954436695
 H        -2.9383663950        5.0604462131        0.9093113956
 H        -4.5908113370        5.6450893337        1.4305837238
 H        -4.3344402981        4.5992639874        0.0335636166
 H        -4.0824584335        4.4657808388        3.7141291815
 H        -3.9664038326        2.7655132052        3.9948383814
 H        -2.6250578835        3.7585021585        3.3318641686
 H        -2.9422083788       -1.0670145433        1.3965607021
 H        -3.8939088054       -0.3224516802        0.1563420653
 H        -1.9066751019        1.7065132813       -3.8783375486
 H        -2.1943314326        2.5912866706       -2.4007052678
 H        -1.4079162255       -2.0910042650       -2.9910982554
 H        -1.6124230170       -2.3410284437       -1.2976326113
 H        -0.0496913299       -1.7328116212       -1.9919580964
 H        -3.7216208708        0.0857540054       -1.6488017082
 H        -3.0633750266        0.4211093179       -3.2548439393
 H        -3.4664175827       -1.1302819676       -2.7715229378
 H        -0.7020905650        3.7267486775       -4.2640019568
 H         0.4641874024        2.6382840813       -3.7790861473
 H         2.5108293571        3.6111997913       -0.1197144749
 H         2.8726505122        2.4242862943       -1.3882872414
 H         1.2893316758        5.0343870677       -4.6668379986
 H         2.0414415376        6.3391718069       -3.9602081301
 H         0.4232147021        6.3898739045       -3.9244120557
 H        -0.0330592265        6.4441802682       -1.2885258460
 H         1.2777735774        5.9081348216       -0.2628262699
 H         1.6673423970        7.0426291943       -1.6287764855
 H         5.0132650640        4.1604079420       -1.4585593978
 H         4.6363131074        4.2330288578        0.2631573480
 H         5.5460490847       -1.0742695916        2.0471071938
 H         3.8275030323       -1.5841556617        1.6825810551
 H         6.7460346139        0.7752465920        2.2817199314
 H         7.4385374889        2.1966346066        1.3522195705
 H         7.2897260250        0.7709134303        0.5238967394
 H         3.7594671409        2.9078018278        2.0715461899
 H         4.8210415753        1.9735271177        3.0134185422
 H         5.4258354700        3.3450882529        2.1571795913
 H         5.9467527414       -2.4660654178       -0.0916895117
 H         5.5831858562       -0.7972190582       -0.6742955859
 H         4.1725512815       -4.5586754296       -4.2755038049
 H         5.4746863064       -3.7087233179       -4.9681576810
 H         2.4194981354       -3.4779987347       -2.7520187386
 H         2.7734581764       -2.7947885951       -4.3165366160
 H         2.2643655671       -1.7787104527       -2.9625676506
 H         4.7758142141       -1.1138105629       -4.2079747259
 H         4.5321335742       -0.2992021824       -2.5976666551
 H         6.0102990750       -1.2674674701       -2.8903322717
 H         6.1507207093       -6.0715297374       -5.0443997066
 H         7.1146668539       -5.4304532859       -3.8525320708
 H         5.8556409088      -10.8302454206       -4.4110627777
 H         6.9799500095      -10.3680648929       -5.5816429468
 H         7.4898105106      -10.4501794138       -3.8966915447
 H         7.8778407393       -7.4504948592       -1.6439737046
 H         8.2958970758       -7.0378590043       -3.2758083499
 H         8.1517172945       -8.7213311154       -2.6425104574
 H         5.6939759877       -8.3982128022       -0.9071677603
 H         4.5084882704       -8.8834456984       -2.0334990130
 H         5.9709532494       -9.7702825942       -1.8662917193
 Na        1.2568346410       -0.5181396430       -0.3725582217
