155

 C        -5.6540574544        2.0346343502        6.6739779454
 C        -4.7962490470        0.9960511399        5.9724101459
 C        -5.3601506396       -0.4442124077        5.9476330429
 C        -5.4734258852       -0.7902486039        4.4227004082
 C        -6.6958687749       -0.1684345287        3.6025738411
 C        -4.2391355344       -1.3833138139        6.4210402016
 C        -6.6317291221       -0.7251801609        6.6917867793
 O        -3.6725655100        1.1269936978        5.4244307686
 O        -4.6340170530       -1.4146989493        3.8643438559
 C        -7.3653956908       -1.2049348095        2.7298901787
 C        -8.6919587229       -0.7008702800        2.0141986461
 C        -8.4731230890       -0.3750837300        0.3758605784
 C        -7.3009629931        0.7252176625        0.4041961495
 C        -7.6988873850        2.1970740280        0.6537735438
 O        -9.6526338472       -0.3967084760        2.6111826834
 O        -6.1896876353        0.4204712912        0.0656080610
 C        -7.9936634720       -1.6045772759       -0.4517763059
 C        -9.8816516581       -0.0008577431       -0.1080586777
 C        -6.4468549516        3.1748707499        0.6561095425
 C        -5.6702642316        3.2717318004        1.9886215097
 C        -4.1197431413        3.5504075727        1.8662376924
 C        -3.5343890934        2.2645446852        1.0110094957
 C        -3.1689682106        0.9685473785        1.7689813686
 C        -3.9349392248        4.8991659565        1.1573290359
 C        -3.3357138039        3.5591402166        3.2237996802
 O        -6.2266030192        2.9759751962        3.0087462580
 O        -3.2498804635        2.3436157762       -0.1914700131
 C        -3.0108593190       -0.1426954208        0.7162367317
 C        -1.7394102410        0.0868714150       -0.1768245298
 C        -1.7728145776       -0.0231223216       -1.7661392375
 C        -0.7317614184        0.9489544381       -2.3995163690
 C        -1.1632081740        1.9662405076       -3.4348270813
 O        -0.6615780264        0.1978311619        0.4677932257
 O         0.4492994819        0.7590417441       -2.1505806701
 C        -1.1439859916       -1.4593276876       -2.1255386419
 C        -3.2160006495        0.1139126194       -2.1910514064
 C        -0.1731433549        3.1144380637       -3.5625325645
 C         0.2001704208        3.7571773212       -2.2227873416
 C         1.3160798447        4.8346976517       -2.2493639897
 C         2.7298095546        4.1351591013       -2.0926783144
 C         3.0029122112        3.4463042106       -0.7886617344
 C         1.3774440724        5.6108902668       -3.5809028596
 C         1.0166476451        5.7525770352       -1.0851040137
 O        -0.2499198467        3.4156101357       -1.1053925478
 O         3.4845922274        4.0349892720       -3.0452969808
 C         4.5741448157        3.5473555428       -0.6830778551
 C         5.3765822790        2.2953968405       -0.3608985656
 C         5.2793132981        1.5128410061        1.0094957702
 C         4.2482455861        0.3308613461        0.6752086660
 C         4.6050033535       -1.0845475768        1.1850214265
 O         6.0708207708        1.6815924265       -1.1808834278
 O         3.1624669590        0.5947390015        0.1896688829
 C         6.5824214118        1.0408882131        1.4967954023
 C         4.5932273310        2.4809919064        2.0512998725
 C         5.1333443975       -1.8977567556        0.0522366935
 C         3.9549125210       -2.1189427091       -0.9651570548
 C         4.2488112612       -2.2920570443       -2.4125965245
 C         5.4490073231       -3.4469259608       -2.6990399029
 C         5.3632478040       -4.0471418975       -4.0610514272
 C         2.9331155460       -2.6381798926       -3.1655992460
 C         4.9176128215       -0.9238406084       -2.8946185577
 O         2.8279568865       -2.1757035749       -0.5430789825
 O         6.2381392977       -3.6648625460       -1.8458159309
 C         6.1713581537       -5.3637208537       -4.2547846134
 C         5.6520126839       -6.4873791237       -3.4019631224
 C         6.4241924162       -7.8078503247       -3.1121794733
 C         6.2880400128       -8.5873483680       -4.4681104766
 C         6.4854373321      -10.2159093265       -4.4177233189
 O         4.5067409253       -6.3781778941       -2.9120369782
 O         5.9641929123       -8.1073224341       -5.5294084471
 C         7.9347248924       -7.5279700594       -2.8731260729
 C         5.8125495925       -8.5418498335       -1.9708044699
 H        -6.6914291813        2.0894891340        6.3301334948
 H        -5.7081166190        1.8526504088        7.7640067926
 H        -5.2771306633        3.0339192022        6.3908393588
 H        -7.3776969179        0.4152399528        4.1725435467
 H        -6.3147696943        0.6045550320        2.9381190248
 H        -4.0744557170       -1.4249373260        7.5199639645
 H        -3.3558304165       -1.1617177287        5.8732351796
 H        -4.4506480296       -2.3692887574        6.1192136059
 H        -6.6048463427       -1.7771343694        6.9736483477
 H        -6.5820022591       -0.0917042064        7.5745883978
 H        -7.4683473522       -0.4602015411        6.1195465182
 H        -6.5280312266       -1.5332063845        2.1552914713
 H        -7.6680266011       -2.0895338421        3.3126244460
 H        -8.3707232954        2.4212513550       -0.2417591514
 H        -8.2137190735        2.3893070195        1.6244565292
 H        -7.4011305469       -1.3467560346       -1.3712873959
 H        -8.8382846074       -2.1929796582       -0.8095073424
 H        -7.4285367895       -2.3002420650        0.0802637212
 H       -10.3249727383        0.5890056646        0.6977608780
 H        -9.8908426041        0.7993733318       -0.8798783533
 H       -10.2428195250       -0.9526908512       -0.5153448858
 H        -6.7750718775        4.2138077208        0.7111209179
 H        -5.7860519472        3.1422623758       -0.1218712151
 H        -2.2193264231        1.1132108621        2.3383277108
 H        -3.8497459890        0.6603506928        2.5691246125
 H        -3.1565497803        5.4636451466        1.6571784961
 H        -4.8039649290        5.4841501699        1.1013318705
 H        -3.5653157932        4.8034475080        0.1270423590
 H        -3.6556694286        4.2934183204        4.0156299283
 H        -3.5029766488        2.5755785543        3.7215093953
 H        -2.2940709450        3.8122601905        3.0163525783
 H        -2.8428728340       -1.1349127377        1.1360740145
 H        -4.0291492680       -0.1402596345        0.2628625971
 H        -1.3298125826        1.3908608903       -4.3694598241
 H        -2.1182811110        2.4362848404       -3.2403606195
 H        -0.3492478986       -1.3486278933       -2.8184667005
 H        -1.8195349970       -2.1936150900       -2.5133926988
 H        -0.6572727022       -1.8474641223       -1.2060310207
 H        -3.7050623551        1.1039866172       -2.1001969658
 H        -3.4468523442       -0.4366034611       -3.0786540222
 H        -3.8555442414       -0.4554530478       -1.5283231222
 H        -0.6386703218        3.9985923661       -4.1323303186
 H         0.7965516602        2.9332477526       -4.1289307048
 H         2.4992232753        3.8479241792        0.1211786998
 H         2.6878546287        2.4360735951       -0.9284289981
 H         1.5680270943        5.0508100349       -4.4600297827
 H         1.9748384698        6.4938492292       -3.7433495482
 H         0.3891623311        6.0027421754       -3.7481123596
 H        -0.0217854817        6.0232284371       -1.1931473244
 H         1.0471878802        5.2139191313       -0.1613447721
 H         1.5827639001        6.6691245651       -0.9937119279
 H         4.9277317329        3.8633362414       -1.7338360776
 H         4.7516725908        4.4366950580       -0.1190173626
 H         5.3359003710       -0.9155965368        1.9638987375
 H         3.7440797763       -1.6390800340        1.5262946939
 H         6.5208055597        0.4826529991        2.4233962189
 H         7.2272023283        1.9389534963        1.6259997460
 H         7.1897738816        0.5411361763        0.6886759580
 H         3.6122793836        2.8803137858        1.6615380666
 H         4.4785199613        1.9639786159        3.0324578880
 H         5.0900837350        3.4520372346        2.1441311187
 H         5.4682435983       -2.9261238531        0.3044243721
 H         5.9242666166       -1.2363797177       -0.2846370819
 H         4.3209527181       -4.1372198148       -4.4942856821
 H         5.8623777219       -3.2902532150       -4.7341535592
 H         2.6642041053       -3.6969973495       -2.9970759671
 H         3.0050161203       -2.4804381689       -4.2403299691
 H         2.1271516886       -1.9569062065       -2.9351470903
 H         4.8036916397       -0.7846659377       -3.9701953227
 H         4.4158135757       -0.1527730024       -2.3641529646
 H         5.9580700137       -1.0166257488       -2.6539948585
 H         6.0929774332       -5.7447348637       -5.3110302596
 H         7.2097612044       -5.2966437481       -4.1992135228
 H         5.5061136646      -10.7584189043       -4.1768688284
 H         6.7850230577      -10.7282713397       -5.3694921032
 H         7.2241388934      -10.5627697706       -3.6929774180
 H         8.2194140178       -6.7616289847       -2.1301541960
 H         8.4355376363       -7.1788639771       -3.7563493349
 H         8.3868125163       -8.5242906222       -2.5870605544
 H         5.6287274347       -7.9280334270       -1.0321253731
 H         4.7898308396       -8.9530912196       -2.2556432331
 H         6.3736732666       -9.4964694734       -1.6714506464
 Na        1.2159537444       -0.4912268825       -0.5308048828
