155

 C        -6.0749865165        2.0187068637        6.5368124587
 C        -5.0319654169        0.9880576777        6.1012483554
 C        -5.6371334882       -0.4871774397        6.0852416066
 C        -5.9794491638       -0.7964156104        4.5266125845
 C        -7.4188235407       -0.5141175624        3.9945816634
 C        -4.4463472247       -1.4846639285        6.5524442083
 C        -6.8618289623       -0.6411092876        7.0491755466
 O        -3.8727837767        1.2785974161        5.8647332634
 O        -5.2498019653       -1.5612545550        3.9115317523
 C        -7.4378296861       -1.1223153770        2.5943206922
 C        -8.6206621766       -0.9238390088        1.7059711531
 C        -8.2397662316       -0.6030417765        0.1091394872
 C        -7.2934259276        0.5381535423        0.1815329749
 C        -7.8129210795        1.9616079654        0.6365654860
 O        -9.7929506281       -0.7130665274        2.0990812477
 O        -6.0826719808        0.4064239240       -0.0801828800
 C        -7.3755129792       -1.8753748106       -0.5014965829
 C        -9.6074566919       -0.3099834818       -0.6754769444
 C        -6.6540094760        2.9599528732        0.8369114997
 C        -5.6346385516        2.8705432745        2.1775828004
 C        -4.1489530916        3.4721972449        2.0602886217
 C        -3.4691813829        2.5118375650        0.9842237262
 C        -3.0699296041        1.1184087750        1.4056987639
 C        -4.3855519270        4.8971248650        1.4964376510
 C        -3.4389492253        3.4950105043        3.3886273657
 O        -6.1133704115        2.4692312000        3.2141195566
 O        -3.4024796796        2.8741434632       -0.1475904103
 C        -3.0217148796        0.0743968526        0.3190830892
 C        -1.7841734752        0.1718471080       -0.5294251886
 C        -1.9047723548       -0.1598555108       -2.1186530472
 C        -0.6483705145        0.5475041958       -2.7769843146
 C        -0.9360049558        1.9064772587       -3.4938105669
 O        -0.7566380114        0.2457282346        0.0658162205
 O         0.4331120775        0.0568802533       -2.7148523493
 C        -1.8924553037       -1.7906233058       -2.1364843173
 C        -3.2291520319        0.3739786638       -2.7412644529
 C         0.2762621111        2.9012606993       -3.2979971519
 C         0.1632742715        3.7739154823       -2.0084041836
 C         1.4021902031        4.6775956548       -1.7207123843
 C         2.6516378773        3.6816014588       -1.6614966222
 C         3.6125361739        3.5630739481       -0.4123541240
 C         1.5601553714        5.6785124960       -2.9382543822
 C         1.0795017859        5.3026905513       -0.3763562288
 O        -0.7831414781        3.8437926688       -1.3286520388
 O         3.0063473005        3.0467030219       -2.6513988184
 C         4.9626575148        2.9112911185       -0.8088580088
 C         5.5427467320        1.8247850350        0.0828446779
 C         4.8940243233        1.2193335869        1.3928252089
 C         3.7015940835        0.3717712063        0.9909023594
 C         3.8000722877       -1.0837958885        1.1534321206
 O         6.5480387678        1.3066739455       -0.2913645994
 O         2.6856471395        0.7362932245        0.3870756951
 C         6.0051334611        0.5704559978        2.2906530676
 C         4.3492014591        2.3890158276        2.2838035906
 C         4.6996030037       -1.8608334970        0.2107176664
 C         3.8801553821       -2.0199862170       -1.0953630816
 C         4.4216636734       -1.9714690899       -2.4762102866
 C         5.5567264559       -3.0194442041       -2.7183503121
 C         5.9785045163       -3.3854092486       -4.1756780202
 C         3.2200240969       -2.3308985106       -3.5564772409
 C         4.9692625231       -0.5597563865       -2.7796506221
 O         2.6655472894       -2.2245865468       -1.1155343738
 O         6.1095671361       -3.6153525709       -1.7958305774
 C         7.0358924566       -4.5421715885       -4.0831227448
 C         6.3031665709       -5.9234540072       -3.7083523167
 C         7.0953016889       -7.2918560874       -3.3775564946
 C         6.6384417025       -8.1713268056       -4.6386092720
 C         5.6576363587       -9.2899080917       -4.3974973946
 O         5.1341935839       -6.0278985255       -3.6923738440
 O         7.0779478445       -7.8041313248       -5.7296211123
 C         8.5878075645       -6.9408828967       -3.5530609753
 C         6.8398500364       -7.8582227109       -2.0170418031
 H        -7.0094944882        1.8328017862        6.0409786027
 H        -6.2446431496        2.0858115756        7.5646990887
 H        -5.7571957175        3.0475973857        6.3625172734
 H        -8.2112993488       -0.9563811893        4.5596811023
 H        -7.6767589002        0.5759604910        3.8602387127
 H        -4.2175960727       -1.4450982646        7.6634829572
 H        -3.4725347856       -1.1649995685        6.1342239662
 H        -4.6907416308       -2.4647209013        6.2380291855
 H        -6.9471490330       -1.6933759090        7.5090371906
 H        -6.5792406311        0.0330940786        7.8070167356
 H        -7.8472030125       -0.3959005161        6.5940282047
 H        -6.5419492116       -0.7441643842        2.0528817780
 H        -7.3418569064       -2.2346911617        2.6468568645
 H        -8.4562446266        2.1805271603       -0.2545254103
 H        -8.5630617112        2.0246001257        1.4253954061
 H        -6.8176614521       -2.5663017957        0.1759898389
 H        -6.5861725895       -1.3685203617       -0.9953325646
 H        -7.9530256885       -2.4439371872       -1.1935002534
 H       -10.2147133962        0.3320091345       -0.0658560213
 H        -9.2024562171        0.0387718558       -1.5836028628
 H       -10.2159948709       -1.1356913223       -0.8782259709
 H        -7.0673281637        4.0237943567        0.9332201717
 H        -6.0063826956        3.0940434391       -0.0138934754
 H        -2.0517432899        1.3103807448        1.7488790534
 H        -3.7185401300        0.7102685132        2.1385612570
 H        -3.7287999624        4.9981949110        0.6025391277
 H        -4.0593188671        5.6584910381        2.1924573192
 H        -5.4077373166        5.0120179163        1.1798207356
 H        -3.7603810256        4.3231692277        4.0165213584
 H        -3.6163927612        2.5773409432        3.8478096492
 H        -2.3842131115        3.4683074343        3.3290940042
 H        -2.9268226534       -0.8655647849        0.8203302188
 H        -3.8999102060        0.0285927065       -0.3073142451
 H        -1.0712538611        1.5620862439       -4.5485624717
 H        -1.8492096464        2.4707514579       -3.2917959731
 H        -1.0830557185       -2.1175266346       -1.4379213835
 H        -1.6172574646       -2.2098706642       -3.1504463061
 H        -2.8864218808       -2.1770258396       -1.8204544584
 H        -3.6001495372        1.3560201599       -2.6585240308
 H        -3.1050771319        0.3405746471       -3.8325106938
 H        -3.9161594139       -0.3841303414       -2.4469800989
 H         0.1563702241        3.6643785538       -4.0482412171
 H         1.2124094457        2.3706592367       -3.3190267815
 H         3.6753859799        4.5982707512        0.0728596469
 H         3.0076137498        3.0072032224        0.2424277729
 H         1.7368241613        5.1883644093       -3.9605827578
 H         2.3892398828        6.4108858883       -2.7681068080
 H         0.7121125977        6.2734492100       -3.1387230501
 H         0.2779991996        6.1457423675       -0.5329924427
 H         0.4499005489        4.5435002452        0.0913216244
 H         1.8977781096        5.6349596117        0.2898585912
 H         4.7910590855        2.6299648545       -1.8813247018
 H         5.7015114422        3.6433545121       -1.0122023005
 H         4.0414313583       -1.2450840524        2.2350680032
 H         2.7927640700       -1.5766196033        0.9793670758
 H         5.7661090598        0.4036106480        3.3325004908
 H         6.9102787938        1.2112730703        2.4312542380
 H         6.3567028510       -0.3916219414        1.9916420876
 H         3.3130448352        2.3549421690        2.5501335535
 H         4.8137379286        2.4200359949        3.2589856254
 H         4.6630058004        3.3431748729        1.9293969197
 H         4.9740098335       -2.8879489574        0.5090811137
 H         5.6597891187       -1.3430650234       -0.0023459306
 H         5.1209224872       -3.7755079536       -4.7447279886
 H         6.3639369433       -2.4760801516       -4.5731496142
 H         2.5638512844       -3.1670146045       -3.3435795955
 H         3.7189500056       -2.4961016969       -4.4789688029
 H         2.4733343782       -1.5158412522       -3.6036430471
 H         5.0515169340       -0.5201798611       -3.9334445437
 H         4.3102060081        0.2043676410       -2.3706514058
 H         5.9410108307       -0.5739350245       -2.3190172804
 H         7.6035202833       -4.6458418369       -5.0783602562
 H         7.8034726652       -4.2576694288       -3.4142657856
 H         4.7353134254       -8.8838366576       -4.1130368247
 H         5.4297704891       -9.8898887827       -5.2727374902
 H         5.9272744768       -9.9836071040       -3.6255071753
 H         9.0309385983       -6.2441332740       -2.8622911720
 H         8.7746614159       -6.6541753589       -4.5768063070
 H         9.2687484059       -7.7640822831       -3.4932351529
 H         7.2758230523       -7.3681356904       -1.2081539348
 H         5.8178738107       -7.9987677556       -1.8839653612
 H         7.2976295000       -8.8002003293       -2.0372314916
 Na        1.3000170814       -0.5667121077       -0.7641414623
