155

 C        -8.2754518570        0.8242165185        6.3313589517
 C        -6.8002607839        0.4690345720        6.0977395544
 C        -6.4968474245       -1.0404088890        5.9482952278
 C        -6.5903500491       -1.3740228232        4.4966596064
 C        -7.9187913712       -1.9759494443        3.8897805225
 C        -5.0017962747       -1.1960412957        6.4751395929
 C        -7.3083992395       -2.0127169142        6.7990173826
 O        -5.8595154163        1.2192398104        5.9713442748
 O        -5.6552925712       -1.1002704449        3.7060679697
 C        -7.9893539576       -2.0152029147        2.3326941059
 C        -9.1423603994       -1.1188906456        1.7945715471
 C        -8.9941967053       -0.8021238843        0.1673720534
 C        -7.8212962063        0.2479984589       -0.0155931363
 C        -8.1862441912        1.5682134787        0.7356380203
 O       -10.0331235538       -0.7634670287        2.4379084770
 O        -6.7353654679        0.1233931936       -0.5480318213
 C        -8.6527309564       -2.1565416322       -0.5972755161
 C       -10.3560950388       -0.1364405481       -0.3472908204
 C        -7.1303368847        2.6163850587        0.6629489577
 C        -6.1473260902        2.6278053433        1.8827414709
 C        -4.6617430304        3.1832261840        1.6831538011
 C        -4.0006365678        1.9839633102        0.7550046028
 C        -3.5875116727        0.5585614834        1.3238710977
 C        -4.5167617588        4.4975241502        0.9268060223
 C        -4.0756963195        3.2255402418        3.2252144805
 O        -6.5905765383        2.2797802069        2.9734730971
 O        -3.9699425883        2.1372156546       -0.4793648554
 C        -3.3492753849       -0.4588451926        0.2831822351
 C        -2.0134374906       -0.1131180636       -0.6187330177
 C        -2.0097908292        0.1106699089       -2.2918673511
 C        -0.6682272695        0.7045084122       -2.7172172633
 C        -0.5498949691        2.1593635544       -3.2099326214
 O        -1.0120468639       -0.0947774118        0.0729963031
 O         0.2674921559       -0.0814659302       -2.5938984573
 C        -2.0566232794       -1.4327553827       -2.6984854917
 C        -3.2388119259        0.7596974213       -2.9892671849
 C         0.8169002972        2.8288283238       -3.3017368450
 C         1.5332164253        3.1225201534       -1.9829718552
 C         2.3152010729        4.3316795360       -1.6731966224
 C         3.7963173203        3.8701409879       -0.8483334371
 C         3.7209915297        2.7112629137        0.1176384012
 C         2.4116731095        5.3439888758       -2.9166702603
 C         1.4441828223        5.0781603203       -0.5552723000
 O         1.4562306394        2.2233425840       -1.1397891061
 O         4.7994743281        4.4336527928       -1.1721353308
 C         5.0822138745        2.3440444253        0.8615274112
 C         5.2704322219        0.8821857041        1.3223047791
 C         4.3218491690        0.0554510616        2.2832800323
 C         3.2178525746       -0.5686321491        1.4214476079
 C         3.3879471252       -1.8607292660        0.7232147501
 O         6.2666754523        0.3527910439        0.8761036466
 O         2.1001833338       -0.0234788767        1.4755197718
 C         5.1374894313       -0.9911649667        3.0623278447
 C         3.6993579923        1.0280614352        3.3575321119
 C         4.5476307678       -1.8829023336       -0.2632306040
 C         4.2632881229       -1.1414130518       -1.5908376931
 C         5.0361619784       -1.4279664890       -2.9721551059
 C         6.5189361036       -2.0133084683       -2.7742185641
 C         7.3513585125       -2.1219789015       -4.0742188521
 C         4.0874871904       -2.2916842201       -3.8800070799
 C         5.1811392110        0.0211349049       -3.5307425569
 O         3.2303627958       -0.4516906485       -1.7245438579
 O         7.0049965827       -2.2796840653       -1.6720916762
 C         8.3257457568       -3.2912205377       -4.1107081618
 C         7.3605562741       -4.5084791765       -3.8087307618
 C         7.8758747442       -5.9005346938       -3.7543025014
 C         8.1245110403       -6.3143122804       -5.3842466362
 C         6.8893007494       -6.9157066369       -6.0799539677
 O         6.1667307717       -4.4811975096       -3.8687112339
 O         9.0945586656       -5.8167236226       -5.9423989169
 C         9.3645388688       -6.0665349735       -3.1284792610
 C         6.8403720329       -6.9798950484       -3.1549178260
 H        -8.5886587116        0.4524735041        7.2959779085
 H        -8.4331163077        1.8863139716        6.3054281494
 H        -8.9827219609        0.3981266984        5.6552042208
 H        -7.9997671721       -2.9484924109        4.2900548037
 H        -8.8460902997       -1.4400535716        4.2213384078
 H        -4.9029988851       -0.4460475564        7.2833462560
 H        -4.2693287618       -0.8861734360        5.7035557841
 H        -4.7682682328       -2.2113549810        6.7266410256
 H        -6.9132852574       -1.9341368572        7.8105722890
 H        -8.3424663968       -1.7677880227        6.8508019690
 H        -7.2567031705       -3.0347713130        6.3933481266
 H        -7.1556991973       -1.7208033318        1.7224028824
 H        -8.2426778151       -3.0095970126        1.9193028627
 H        -9.1656719575        1.8694426333        0.3918648135
 H        -8.3569300195        1.4084898293        1.7729574062
 H        -8.3123433883       -2.8460765302        0.1396115875
 H        -8.0699199993       -2.1689362638       -1.4717678090
 H        -9.6272693112       -2.6004851733       -0.8872828381
 H       -10.8536224823        0.3010455634        0.5081319144
 H       -10.1875059916        0.4548300996       -1.2507315831
 H       -11.0755028179       -0.8918710994       -0.7096335456
 H        -7.5421474239        3.6757706441        0.5642012904
 H        -6.6581177803        2.4901825079       -0.2934938117
 H        -2.7261090180        0.6423695813        2.0572467497
 H        -4.2755309191        0.3519042376        2.1480384117
 H        -4.9108153553        4.3239143921       -0.0848068659
 H        -3.4674984619        4.7752760002        0.8534328224
 H        -5.0039866016        5.3622753430        1.3158388902
 H        -4.7782212651        3.7414732987        3.8772584316
 H        -3.9808178107        2.2682495535        3.6639918982
 H        -3.1325216584        3.7107779077        3.2791624863
 H        -3.0109418466       -1.4112647697        0.7454299975
 H        -4.3542203226       -0.5790944133       -0.2570473665
 H        -1.0143385758        2.1732122066       -4.2267262105
 H        -1.1423944174        2.8149545742       -2.5522272361
 H        -1.0376676283       -1.7834861034       -2.4591951954
 H        -2.2769332654       -1.4131934548       -3.8071392295
 H        -2.7560552661       -2.1110101394       -2.2195666222
 H        -2.8360451215        0.8071944116       -3.9485002196
 H        -4.0753636344        0.0462832034       -3.1349916353
 H        -3.5611888457        1.7406860396       -2.6369192760
 H         0.5919693234        3.7914275563       -3.7682075271
 H         1.4587860664        2.3322485238       -4.0336853634
 H         2.8206516723        2.8056603987        0.8564065203
 H         3.5807208790        1.8528615329       -0.5317103039
 H         3.0303523364        4.8464658561       -3.6577672245
 H         2.9653587126        6.1969190239       -2.5945846741
 H         1.4122751718        5.5855429923       -3.2379458007
 H         0.9210002517        5.9171814677       -0.9745496844
 H         0.6578501762        4.3333674420       -0.1256928625
 H         1.9958769211        5.5106890006        0.3538491493
 H         5.8807037590        2.6194805983        0.2257503395
 H         5.3059305515        3.1074643868        1.6512648079
 H         3.4855610583       -2.6714974914        1.4492613712
 H         2.4169910754       -1.9373342475        0.2513206632
 H         4.5461048145       -1.9166480748        3.0686806612
 H         5.4833934113       -0.7207276698        4.0562772458
 H         6.1279383581       -1.0743735604        2.6195190455
 H         3.7207000969        0.5002843509        4.2674449157
 H         4.2593833460        1.9384197485        3.4389054517
 H         2.6755630115        1.1601330716        3.0615653412
 H         4.6598832140       -2.9522552174       -0.4982179530
 H         5.4463179498       -1.5294999241        0.2070964143
 H         6.6617993641       -2.1224375936       -4.9538513781
 H         7.9277028825       -1.1846328011       -4.1004063052
 H         3.6562288016       -3.1138635460       -3.3431529501
 H         4.6144548471       -2.6663414352       -4.7300112047
 H         3.3183075130       -1.5815077254       -4.2398943719
 H         5.7845805651        0.0052496928       -4.4223879081
 H         4.2508179967        0.4619258219       -3.9383755244
 H         5.7042640034        0.7473198107       -2.8255908263
 H         8.9469132633       -3.3963396241       -5.0747830764
 H         9.0881552687       -3.3082300186       -3.3271751047
 H         6.7347231487       -7.9559493387       -5.9862963846
 H         5.9736961483       -6.5345827137       -5.7231031420
 H         7.0722006735       -6.6165127370       -7.1219969294
 H         9.4963614999       -5.6221779160       -2.2014111204
 H        10.0747967213       -5.5373501354       -3.7852683902
 H         9.5041206100       -7.1010613324       -3.1153124174
 H         6.7080476598       -6.9303085707       -2.1179729936
 H         5.9245755398       -6.8505122775       -3.6461940880
 H         7.3589812342       -7.8594938755       -3.3208803934
 Na        1.0745906808        0.1681085003       -0.5966669759
