155

 C        -8.3795797031       -0.2079214213        6.7257633567
 C        -7.1008791861       -0.6980176871        6.0388471530
 C        -6.7015109688       -2.1374901558        5.7320354086
 C        -6.9985857588       -2.3768591063        4.0907950980
 C        -8.2127045025       -1.7389698803        3.5013515509
 C        -5.2148560894       -2.4905191622        6.0957147722
 C        -7.6261160234       -3.1399463535        6.4656880383
 O        -6.2477146972        0.1874102950        5.7564309060
 O        -6.1954706388       -2.9479033583        3.4363923870
 C        -8.4467348573       -1.9038165158        2.0085404438
 C        -9.6880094673       -1.2339588572        1.4683889471
 C        -9.5232205226       -0.6574459542       -0.1110107052
 C        -8.4498590256        0.4263517421       -0.1436350533
 C        -8.8636215208        1.8659667763        0.1731457738
 O       -10.7074406520       -1.1281574353        2.0402466758
 O        -7.2622444404        0.3213168624       -0.4097827003
 C        -9.1999763397       -1.9317532921       -0.9552019877
 C       -10.9302495292       -0.1628212159       -0.7119023384
 C        -7.7016072076        2.7970520747        0.3820811681
 C        -7.0195487029        2.4203574234        1.7260901753
 C        -5.4671847605        2.6394095995        1.9114610747
 C        -4.7475809020        2.2000827088        0.6055259845
 C        -3.7864728818        1.0427058114        0.5828209496
 C        -5.3023163804        4.1878283486        2.0912209681
 C        -5.0261721689        1.8896664747        3.2332379845
 O        -7.6793782819        2.0037749857        2.6769604542
 O        -5.1655878230        2.6209956533       -0.4338014650
 C        -3.4825480335        0.5307786406       -0.8609689252
 C        -1.9752010548        0.4125250196       -1.1940118838
 C        -1.5657094235       -0.0170080992       -2.6652880249
 C        -0.0653657834        0.5257315788       -2.9007398360
 C         0.1991874382        2.0186085537       -3.1340431747
 O        -1.2690573460        0.4152902036       -0.2242831539
 O         0.8235850342       -0.2720600910       -3.0225453149
 C        -1.5612642943       -1.5458107380       -2.8078047733
 C        -2.4980246280        0.6320735901       -3.7225384734
 C         1.5790262889        2.5076991952       -2.7491347625
 C         1.7531949392        2.8601385512       -1.1418547391
 C         2.5133069939        4.1851795556       -0.7219335498
 C         3.7896861317        3.7094266869       -0.0874606908
 C         3.5601071986        2.8764108886        1.2718607234
 C         2.7633199844        5.0491519575       -1.9316106716
 C         1.5446699675        5.0049056704        0.2836107914
 O         1.1841052819        2.1716071914       -0.3682127718
 O         4.8298078476        3.9007797297       -0.6066348304
 C         4.8920534225        2.3027852928        1.8233071394
 C         5.1251267114        0.7694533056        1.4445804701
 C         4.2964086066       -0.2261270637        2.5427964085
 C         3.2572951705       -0.7663571169        1.5499368651
 C         3.4436521226       -2.0666022299        0.8171250745
 O         5.8765521159        0.3512863205        0.5977104561
 O         2.2252766405       -0.1500058170        1.4887418026
 C         5.2999268786       -1.3210576646        2.8545299543
 C         3.7611998572        0.4065210410        3.8681408690
 C         4.4722125681       -2.0405876443       -0.3515685609
 C         4.2778742606       -1.0041684287       -1.4873838892
 C         5.3147931353       -0.8368532038       -2.6273239360
 C         6.7056346577       -1.4705885384       -2.4099404391
 C         7.7163112147       -1.1493479244       -3.5160399508
 C         4.6345276550       -1.5221230567       -3.7941865659
 C         5.4694995537        0.6978953956       -2.8641050015
 O         3.4298979586       -0.1452093451       -1.3916116337
 O         7.0453407110       -2.1100170079       -1.3934925340
 C         8.5636039791       -2.4081486965       -3.7929283119
 C         7.8415248028       -3.6988543032       -4.0968930216
 C         8.8993877787       -4.9895627864       -4.3791700340
 C         9.5071306273       -4.8392061596       -5.8015603593
 C        10.9442291393       -5.5230212507       -6.1259142180
 O         6.6171592543       -3.8576180631       -4.0082072041
 O         8.9482184701       -4.2130093196       -6.6480537288
 C         9.8295315758       -5.1328356158       -3.2355040308
 C         7.9422181742       -6.2991495050       -4.3961949034
 H        -8.2234232292       -0.4025389457        7.7715469138
 H        -8.4487786807        0.8159778796        6.5258587696
 H        -9.3001406456       -0.7580847406        6.4864538582
 H        -9.1571871285       -2.1224539693        3.8723817778
 H        -8.2557596978       -0.6911945968        3.7398479986
 H        -4.7253833487       -3.1270386386        5.3618749263
 H        -5.2717906042       -3.0701403681        7.0023627474
 H        -4.6231589528       -1.5745156326        6.3045995625
 H        -7.2777145911       -3.4244031958        7.5257918455
 H        -8.6782283024       -2.7801437985        6.5418353272
 H        -7.6731031525       -4.0737037297        5.9010708942
 H        -7.6383726963       -1.5840325195        1.3484782247
 H        -8.5722604596       -2.9601464328        1.7388596061
 H        -9.3513885814        2.2564224849       -0.6938931000
 H        -9.6290757089        1.9817458123        0.8767115772
 H        -8.1952073918       -2.3896033098       -0.8771754948
 H        -9.2426866529       -1.6307288714       -2.0439306629
 H        -9.8991589637       -2.6682187082       -0.6830194795
 H       -11.2593012986        0.7510146383       -0.2525932416
 H       -10.9624564176       -0.0448797260       -1.7770445082
 H       -11.6370293951       -0.9238023373       -0.4665239245
 H        -8.1733101773        3.8332453290        0.5080437370
 H        -7.0021466335        2.9368759092       -0.4655625511
 H        -2.7628143800        1.3597962086        0.9515784102
 H        -4.2185858185        0.2461248119        1.2087692429
 H        -5.4873012661        4.6836283511        1.1610552800
 H        -4.2607054188        4.3944120227        2.3809947833
 H        -5.9725973812        4.5144093858        2.9173956099
 H        -4.6716940622        2.6766252760        3.9344019990
 H        -5.8336348777        1.3055542601        3.7461404262
 H        -4.1229734313        1.3372820098        2.9307887069
 H        -3.7858830693       -0.5008685661       -1.1289787943
 H        -4.1125642215        1.1283054211       -1.6096534552
 H        -0.1047646357        2.2535068763       -4.2144431819
 H        -0.4781366750        2.5808730368       -2.4562651258
 H        -0.9597525618       -2.0078527156       -2.0527599081
 H        -1.2885618838       -1.8946657952       -3.7730019343
 H        -2.5470085757       -1.9972591679       -2.6066822642
 H        -2.0997865198        0.5544026056       -4.7706197705
 H        -3.4854143276        0.2349204526       -3.6730707582
 H        -2.7145237113        1.6727627906       -3.5185472733
 H         1.7662187652        3.3856941999       -3.3848966165
 H         2.3768288436        1.8153808691       -3.0866210737
 H         3.2330740275        3.6410644506        1.9433699754
 H         2.7821502590        2.0975980829        1.2180047366
 H         3.5136176298        4.4767869382       -2.5292140078
 H         3.2273783529        6.0480092118       -1.6480506035
 H         1.9062532692        5.2258349842       -2.5035375216
 H         0.6207148469        5.1234080137       -0.2584183291
 H         1.3360563285        4.2795618904        1.1697444030
 H         1.8998120779        6.0249774019        0.6024430646
 H         5.7555276575        2.7925503575        1.2697567698
 H         5.0004004520        2.5041327440        2.8175408901
 H         3.7143672438       -2.8615506828        1.5168201939
 H         2.5273271385       -2.3737198616        0.2732393464
 H         6.2294981129       -0.7912898849        3.1283586987
 H         5.3087470170       -2.0087005409        1.9919626915
 H         5.0038206285       -1.9212405357        3.7016240645
 H         3.6088925940       -0.4905433583        4.4833545936
 H         4.5013442408        1.0643205839        4.4015829990
 H         2.8742970802        1.0344509215        3.8427387122
 H         4.4680001290       -3.0380968977       -0.7894033011
 H         5.5021775682       -1.8905502830       -0.0629654456
 H         7.3097631839       -0.6558872269       -4.3569765833
 H         8.4566561385       -0.3964228526       -3.2058937840
 H         4.2629659803       -2.4935407711       -3.4050309419
 H         5.1377905150       -1.6286359016       -4.7739716562
 H         3.7392035510       -0.9669533296       -4.0104905754
 H         6.3568185759        1.0989331029       -3.4732969651
 H         4.5361303064        1.2558063232       -3.1163403577
 H         5.7109590533        1.1784787696       -1.9415595291
 H         9.2193596561       -2.1721873486       -4.6938697128
 H         9.3072171853       -2.5860837236       -2.9628267847
 H        11.7179198052       -5.1900499240       -5.3952712294
 H        10.7782336097       -6.6065566889       -5.9662220542
 H        11.1101277673       -5.3191565723       -7.1770080263
 H         9.2002621155       -5.1174770850       -2.3104715810
 H        10.6086246296       -4.3342099321       -3.1402985620
 H        10.3038082836       -6.0894671873       -3.2579502310
 H         7.7879087002       -6.6597015010       -3.3627130306
 H         6.9141916880       -6.1548309542       -4.8303539507
 H         8.4040926560       -7.1305342088       -4.9879972348
 Na        1.1092759385       -0.2730016115       -0.6060128246
