155

 C        -7.3107932247       -1.6197268989        7.0929902400
 C        -6.6984426208       -2.6004390561        6.0056206185
 C        -7.6119402912       -3.8481276165        5.4290522353
 C        -7.8524411521       -3.5473845953        3.9059352599
 C        -9.0773794317       -2.8487756407        3.3847748515
 C        -6.8971466782       -5.2595599084        5.4853305885
 C        -8.9622687188       -3.8831536810        6.2022157188
 O        -5.5683995431       -2.3909304960        5.6226058638
 O        -7.0291724129       -3.8659056997        3.0365861649
 C        -9.2483802509       -2.7321589964        1.8505334260
 C        -9.5340094809       -1.3677201082        1.3160676031
 C        -9.2567759586       -1.0437591134       -0.1629634672
 C        -8.1255793738       -0.0448386447       -0.2146668188
 C        -8.5837756287        1.3331793119        0.3236297245
 O       -10.1078440292       -0.4994467193        1.9492954495
 O        -7.0355703683       -0.1262737936       -0.7737452900
 C        -8.8278716797       -2.2499518849       -0.9918419754
 C       -10.5309723711       -0.4874742433       -0.8832029116
 C        -7.6611463043        2.5756602330        0.1876663603
 C        -6.4225941593        2.7124769201        1.2891904543
 C        -5.2195523824        3.6792259922        0.9591851905
 C        -4.3694873727        2.9623943687       -0.0721428778
 C        -4.3802344215        1.3039370733        0.1021903322
 C        -5.7668656151        5.0818534741        0.5839954610
 C        -4.4003133400        3.9414669250        2.2025052716
 O        -6.4211784959        2.1613224745        2.3905247109
 O        -3.8140885891        3.5138804553       -0.9993872222
 C        -3.8355731236        0.5270863514       -1.1959714349
 C        -2.3335688248        0.4732195058       -1.3140855939
 C        -1.8098478437        0.2742682412       -2.7828508358
 C        -0.3189898972        1.0835027278       -2.7979417256
 C        -0.5392630260        2.6807848097       -2.7481799396
 O        -1.5105918310        0.4186632655       -0.4026304056
 O         0.7642740973        0.6401542665       -2.7549586840
 C        -1.5639408163       -1.2510235775       -2.9445502160
 C        -2.7295247480        0.7249092472       -3.9380171026
 C         0.8874386183        3.3930256596       -2.5184044945
 C         1.2895246399        3.2845464821       -1.0412914913
 C         2.3060946854        4.2654344072       -0.4776591205
 C         3.5251628025        3.3860279047        0.1532887416
 C         3.4533219038        2.6483025424        1.5451294038
 C         2.8242899514        5.3186522052       -1.5179377714
 C         1.6508948499        5.1654350641        0.7068297698
 O         0.8362372697        2.4780056036       -0.2137823759
 O         4.5513421775        3.3439574921       -0.4136759716
 C         4.8098233565        2.1759164277        2.0757226114
 C         5.2240191316        0.6513543693        1.9335761005
 C         4.5599523076       -0.6439230403        2.6630277312
 C         3.2294821448       -1.0148470848        1.8463575721
 C         3.0213728670       -2.2844568871        0.9453729848
 O         6.2574254899        0.4510990915        1.4749298535
 O         2.3030737140       -0.1793145122        1.8471197350
 C         5.5252239118       -1.8143920327        2.8255771555
 C         4.0623973249       -0.2339962481        3.9832197628
 C         3.9304713314       -2.2662056288       -0.2281395334
 C         3.8922781548       -0.9815729399       -1.1156305858
 C         4.8617988889       -0.8362617160       -2.3301385557
 C         6.3299619001       -1.3985243870       -2.0964543745
 C         7.3586361092       -1.1684460138       -3.2164702162
 C         4.1854355499       -1.7080640723       -3.5204229524
 C         5.0377517115        0.6988259464       -2.6301087320
 O         3.1020297932       -0.0756248656       -0.8477222365
 O         6.6744594666       -1.8830334379       -1.0517232830
 C         8.5346820511       -2.1371007452       -3.2443880042
 C         8.2930157716       -3.4414579247       -4.0246333789
 C         9.6100914663       -4.0248767440       -4.6602359718
 C        10.5416311748       -3.1904356268       -5.5145414765
 C        11.6570098536       -3.9897523498       -6.2368551610
 O         7.2440179337       -3.9652125811       -4.1272477098
 O        10.4613655005       -1.9875983313       -5.5934406713
 C        10.4648797013       -4.5803593524       -3.3542209397
 C         9.1818019645       -5.2673927849       -5.5101569940
 H        -7.3374160788       -2.1456048416        8.0255577876
 H        -6.5239751991       -0.8627479138        7.1652329962
 H        -8.3038816322       -1.3104516433        6.8592634106
 H       -10.0661419098       -3.3006172022        3.6869841974
 H        -9.1693929859       -1.8028622267        3.7771352656
 H        -7.3181956484       -5.8980877112        4.6985119054
 H        -7.1615039974       -5.8581270968        6.3441186374
 H        -5.8655719077       -5.1332064122        5.3910795225
 H        -8.8410804708       -3.7511929159        7.2575724750
 H        -9.6066838965       -3.0883645682        5.7788728415
 H        -9.4399174663       -4.9167008699        6.0826581711
 H        -8.3286783837       -3.2488848358        1.4816430155
 H       -10.1317340451       -3.2674966146        1.5043174846
 H        -9.5336812218        1.7262854997       -0.2114403277
 H        -8.6448533253        1.2925082526        1.4738905605
 H        -7.8939213789       -2.5004404307       -0.5153870501
 H        -8.5789025008       -1.9261795658       -1.9605820222
 H        -9.5543422000       -3.1066895518       -0.8015212995
 H       -10.9113524492        0.3442146729       -0.3483989807
 H       -10.3217204788       -0.2939481313       -1.9379375335
 H       -11.2705329692       -1.2960166660       -0.8651034130
 H        -8.2791435480        3.4162459284        0.4001760336
 H        -7.1502337987        2.5701361042       -0.7952270819
 H        -3.8814401249        0.9961685556        1.0129776397
 H        -5.4521526799        1.0493736098        0.1902142666
 H        -6.1199569796        5.0230289256       -0.4733814891
 H        -4.9644491359        5.7822881422        0.5395250428
 H        -6.4880187065        5.4849118778        1.2808168505
 H        -3.7108996450        4.8204750305        2.0608365602
 H        -5.0580042937        4.0366393229        3.0641530372
 H        -3.6523423729        3.1642155429        2.4253310587
 H        -4.2536229608       -0.4821776097       -0.9636253505
 H        -4.2992697754        0.9213332958       -2.1589849263
 H        -0.9193052224        3.1075143347       -3.6825411832
 H        -1.2997278796        2.9971418834       -2.0428049906
 H        -0.7772051519       -1.5820348986       -2.2883596350
 H        -1.4165501965       -1.5444162458       -4.0031704285
 H        -2.4404776952       -1.7872850889       -2.6240569071
 H        -2.0987651167        0.6994092681       -4.7926109857
 H        -3.6457427665        0.1150741252       -4.0108932944
 H        -3.1283556338        1.7506082094       -3.7663546219
 H         0.7977671874        4.3911831538       -2.9013789123
 H         1.6002609622        2.8753732840       -3.1445723254
 H         2.9341289061        3.2098957495        2.3082483888
 H         2.7174052530        1.7460478919        1.3693124971
 H         3.5042479084        4.9231153867       -2.2474016449
 H         3.2847623781        6.1071668119       -1.0024449283
 H         1.8926595165        5.7958367886       -1.9999371040
 H         0.5933297990        5.5626507690        0.3855938796
 H         1.4015672479        4.6625806646        1.6466358304
 H         2.2863547127        6.0380224688        0.7512274764
 H         5.5733092438        2.7222089745        1.5915478465
 H         4.8820903027        2.4386595568        3.2108243171
 H         3.1954721814       -3.2544220543        1.3872846064
 H         1.9491972412       -2.1707495453        0.7704167610
 H         6.2203038662       -1.4524061558        3.6084376934
 H         6.1160533883       -2.0838973725        1.9899077180
 H         5.0815975324       -2.7817241885        3.1081372264
 H         3.7139132891       -1.0766814546        4.6406208859
 H         4.8610464855        0.2884251358        4.5402919188
 H         3.3015240231        0.6082704934        3.8828338164
 H         3.8138181750       -3.1816979885       -0.8237808102
 H         4.9899227783       -2.4661783224        0.1958556340
 H         6.8814411211       -0.9958472686       -4.1847957174
 H         7.6878164104       -0.1271193281       -2.9150272267
 H         4.6124759551       -2.7000566958       -3.5564241166
 H         4.3526634223       -1.1897057831       -4.4565344168
 H         3.1135110516       -1.7627527327       -3.3512567925
 H         5.7838564526        0.8489468225       -3.4544059634
 H         4.0218337332        1.1993518547       -2.8184262063
 H         5.4394449332        1.2411172972       -1.7873570603
 H         9.3713348153       -1.6761721427       -3.7972589087
 H         8.9053444434       -2.1709319698       -2.1993157684
 H        11.8321170687       -4.8781464500       -5.6388141588
 H        11.2517732898       -4.3117530582       -7.2014631484
 H        12.4044220552       -3.2803414020       -6.5314720391
 H         9.7249779561       -4.9798573257       -2.6598619052
 H        11.2505076837       -3.9620132451       -2.9019899571
 H        11.0142806834       -5.5396671731       -3.6664299572
 H         8.1384735577       -5.6114402005       -5.1221442503
 H         9.0400120032       -5.0477680766       -6.6137778398
 H         9.9129790541       -6.1202729110       -5.3836643715
 Na        0.6785687892        0.2079460019        0.0906951414
