155

 C        -7.1001574682       -1.9348459978        7.0332016497
 C        -6.7287647614       -2.8830258980        5.9295094668
 C        -7.7517001522       -3.9444637219        5.4245805082
 C        -7.9803474584       -3.5779606582        3.8798984791
 C        -9.2491890424       -2.9494070006        3.3729564115
 C        -7.0656892590       -5.3537295024        5.4692533182
 C        -9.0993410706       -3.9635068818        6.2158523300
 O        -5.6094007022       -2.9623678804        5.5167671261
 O        -7.1168998638       -3.8481354978        3.0874334643
 C        -9.1557305144       -2.8479496802        1.7709786027
 C        -9.4981144851       -1.4861792730        1.2341829700
 C        -9.2178983087       -1.0741103810       -0.2437639556
 C        -8.0980885712       -0.0017196038       -0.1946140094
 C        -8.4241018218        1.3211161571        0.4263697600
 O        -9.9492967533       -0.6077968287        1.9634446201
 O        -6.9622437029       -0.1630087834       -0.5790980513
 C        -8.7476934124       -2.2195783131       -1.0522740496
 C       -10.6141930315       -0.5840043446       -0.8886100801
 C        -7.3735872506        2.4984801687       -0.0355716457
 C        -6.3936760084        2.7534979783        1.1951486149
 C        -5.1380439990        3.6985942694        0.7901552277
 C        -4.1404428845        2.8557813907       -0.1517229733
 C        -4.2024124908        1.3198368035        0.1351376892
 C        -5.5975235080        4.9582826471        0.1484481187
 C        -4.2566005488        3.8785098588        2.0972060870
 O        -6.5299139183        2.2977171440        2.3166565576
 O        -3.3504373392        3.3508673824       -0.9412808641
 C        -3.7917114666        0.3362078314       -0.9695029203
 C        -2.3412731588        0.4638611745       -1.2905164099
 C        -1.8664256836        0.3731310230       -2.7468560726
 C        -0.4693769237        1.1655144844       -2.7010281951
 C        -0.3869587451        2.7313038508       -2.7841546327
 O        -1.5314886466        0.5312207689       -0.3622015126
 O         0.5833073425        0.4506253710       -2.6030537511
 C        -1.4989554879       -1.0988788008       -3.1517049734
 C        -2.8935973799        1.0113961303       -3.6992211018
 C         0.9369619059        3.3817050429       -2.4230751143
 C         1.2443181678        3.4259297894       -0.9246724722
 C         2.3147255671        4.4542229373       -0.3384142378
 C         3.5226832546        3.5006975563        0.1803945211
 C         3.2916072632        2.5377116402        1.3097284728
 C         3.0316535659        5.3533047286       -1.3727389396
 C         1.5758495491        5.2794499728        0.7277835796
 O         0.7024894425        2.6943627402       -0.1001899946
 O         4.6415733923        3.6139762251       -0.3201786467
 C         4.6403893733        2.0861005132        2.0610564144
 C         5.0666154216        0.5955561708        2.0249362364
 C         4.4064187550       -0.5481197097        2.7510351053
 C         3.1149114115       -0.9306939081        1.8811825562
 C         3.0843269343       -2.1480278513        1.0411817715
 O         6.1359251886        0.2456559238        1.4763164970
 O         2.1646905294       -0.1623515302        1.9613465809
 C         5.3447078581       -1.7987041785        2.8501583218
 C         3.9427515169       -0.2011925713        4.1606794731
 C         3.8575136520       -2.2501837928       -0.3397568685
 C         3.7886495200       -1.0207338216       -1.1514116066
 C         4.8085220220       -0.8668328738       -2.4045182385
 C         6.2420274078       -1.3406430555       -2.0783719954
 C         7.3370694383       -1.1405229329       -3.1709274222
 C         4.2662830750       -1.6874217476       -3.6625286400
 C         4.7392521113        0.6475757945       -2.8987756671
 O         2.9982968299       -0.0808988272       -0.9760700961
 O         6.4843303752       -2.1139772083       -1.1879326326
 C         8.5116604734       -2.1242535659       -3.0348375296
 C         8.3518419745       -3.3347936064       -3.9994495429
 C         9.6377173832       -4.0608904827       -4.6448744594
 C        10.6010214789       -3.0487321072       -5.4465199067
 C        11.7518849899       -3.6448649299       -6.3516739164
 O         7.2257416892       -3.8008068557       -4.2830077660
 O        10.6344253947       -1.8364485148       -5.1916620573
 C        10.5396440481       -4.3264006356       -3.4413556156
 C         9.2468102531       -5.2853372047       -5.4131268261
 H        -7.2444280041       -2.5883903610        7.9021846218
 H        -6.3328650995       -1.1882013602        7.1262287698
 H        -8.1133838413       -1.5789923099        6.8399775628
 H       -10.1028810307       -3.5644860542        3.5484763604
 H        -9.5069031684       -2.0671833552        3.9033395432
 H        -7.3154819897       -5.9681464785        4.5977438050
 H        -7.3303604446       -5.9220672001        6.3782394749
 H        -5.9641182587       -5.1381866784        5.4718415147
 H        -8.9723875316       -4.4284372797        7.2214113638
 H        -9.4087095755       -2.9520842335        6.2905636263
 H        -9.8533044148       -4.4940081660        5.7557105280
 H        -8.0964839132       -3.0806509645        1.5933827794
 H        -9.7340277464       -3.7024920908        1.3140592377
 H        -9.3860943105        1.6822858613        0.2880547120
 H        -8.2292253323        1.1052285464        1.4488396086
 H        -7.7341812219       -2.5330314274       -0.8037445600
 H        -8.7243646612       -1.6710467375       -2.0161471080
 H        -9.3832848144       -3.0020400927       -0.9266248482
 H       -11.2835057547       -0.2155104461       -0.1132711482
 H       -10.3699728616        0.2683757784       -1.5244797676
 H       -11.1174958882       -1.4280543034       -1.3401580944
 H        -7.9162431806        3.4714942270       -0.2003214824
 H        -6.7751183369        2.2061394114       -0.8782395548
 H        -3.4795970648        1.3335330326        0.9767604249
 H        -5.1766016155        1.0732262243        0.5374349880
 H        -6.3399199694        4.7806480793       -0.5909153069
 H        -4.8050817981        5.5294035132       -0.3861275552
 H        -5.9447166015        5.6335764344        0.9558961249
 H        -3.2243840756        3.7190406941        1.8924584103
 H        -4.4141212192        4.8673389120        2.5470384090
 H        -4.4496528098        3.1985203418        2.9045240820
 H        -3.9370371787       -0.6577349466       -0.6045010997
 H        -4.3976118798        0.5343446688       -1.7987234893
 H        -0.7590363866        3.0629649599       -3.7405097731
 H        -1.1695785175        3.0806296795       -2.1170498081
 H        -0.8040246895       -1.5881582482       -2.4657073411
 H        -1.0267483215       -0.9646377798       -4.0983058359
 H        -2.3892355420       -1.7433158401       -3.3463540369
 H        -2.4076377225        1.2680451458       -4.6692613014
 H        -3.6852793181        0.2864142747       -3.8133017074
 H        -3.3311386116        1.8979117220       -3.2620378664
 H         0.8856828599        4.4364537940       -2.7648488343
 H         1.6900063816        2.8833491161       -3.0469426463
 H         2.5546901640        2.9098076447        2.0922852496
 H         2.7619851241        1.6902833077        0.9881666451
 H         3.2856568457        4.8308668584       -2.3137592821
 H         3.9913431470        5.5603094944       -0.8526887880
 H         2.6081867716        6.2490861280       -1.6410981042
 H         0.7124095876        5.7786342112        0.4405333980
 H         1.2594826818        4.5273442372        1.4147467778
 H         2.2735739935        5.9866823457        1.1875444249
 H         5.5363531290        2.6877095529        1.7307612663
 H         4.4475034780        2.3550595756        3.0495799167
 H         3.5468742880       -2.9340917818        1.6665047063
 H         2.0054312783       -2.3312861243        0.9825062541
 H         6.2055561519       -1.5834031046        3.4359766040
 H         5.7754320170       -2.2270554672        1.9527945835
 H         4.7363849634       -2.5716587137        3.2146409763
 H         3.7984236452       -1.1296944608        4.6422297002
 H         4.7115094361        0.3224366248        4.7196968961
 H         3.1205837972        0.4408942967        4.1863502647
 H         3.4753002802       -3.1288238082       -0.9160838770
 H         4.8777101172       -2.5484916649       -0.1877668291
 H         6.8272862357       -1.2777384923       -4.1496575879
 H         7.6402138643       -0.1074148531       -3.2325554467
 H         4.5808747269       -2.7521683658       -3.5750524435
 H         4.6565176067       -1.1949771682       -4.5696269586
 H         3.1766057566       -1.6594484951       -3.6781769362
 H         5.5215659187        0.7745699569       -3.6063660867
 H         3.7703568676        0.8131813897       -3.2382784960
 H         4.9124533465        1.4322986909       -2.1059327719
 H         9.4800867182       -1.6302232725       -3.0657550507
 H         8.5278878745       -2.5624487340       -2.0576099158
 H        12.0828854503       -4.6008261006       -5.9962181355
 H        11.4537358579       -3.8258113377       -7.3727615509
 H        12.4106589054       -2.7688328922       -6.3825939376
 H        10.0610825928       -5.1157103313       -2.8912315897
 H        10.6449752938       -3.4292391424       -2.8518156228
 H        11.4962529372       -4.6180557679       -3.6279709021
 H         9.3391820706       -6.0706458931       -4.7527868576
 H         8.2331281932       -5.1663723669       -5.6663845177
 H         9.7795429884       -5.4910547103       -6.3090635219
 Na        0.8316064153        0.3325840611        0.0394317130
