155

 C        -7.0226283414       -2.3765907070        6.9147375212
 C        -6.7256569015       -3.4649886980        5.8912806210
 C        -7.9234298942       -4.3472779235        5.3023432049
 C        -8.0197382716       -3.9439411012        3.6793753962
 C        -9.2615533621       -3.2798731141        3.1159368999
 C        -7.6235618013       -5.8784053358        5.4714954246
 C        -9.1922626822       -3.8288609420        5.9925603422
 O        -5.5874179178       -3.5834990608        5.5671477743
 O        -6.9467475346       -4.0065252302        3.0448317341
 C        -9.1650549852       -2.9282601445        1.6178132930
 C        -9.3140469036       -1.4769828634        1.3405007509
 C        -9.0619240879       -1.0646651399       -0.1783873821
 C        -7.9653559299        0.0249112798       -0.2322483782
 C        -8.2865495236        1.4383134608        0.2196353808
 O        -9.8692637671       -0.7621463191        2.1913026730
 O        -6.7711623320       -0.1969792117       -0.4608350990
 C        -8.6877640737       -2.2258000983       -1.1044245098
 C       -10.3817837492       -0.5158983029       -0.7237077822
 C        -7.2169425546        2.5399374331       -0.1952678348
 C        -6.2423253767        2.9246026795        0.9612280366
 C        -4.8797697384        3.4424025700        0.6875350964
 C        -3.9915021781        2.3164901679        0.1104184442
 C        -4.1547232022        0.8400528881        0.5059079423
 C        -4.9967700115        4.5084693905       -0.4812213323
 C        -4.3311913354        4.2235147748        1.9035433494
 O        -6.6161620566        3.0169460016        2.1437862475
 O        -3.2279242301        2.6634422901       -0.8237376998
 C        -3.5836716726       -0.0516439019       -0.6427797210
 C        -2.2371667449        0.3135704667       -1.1157616476
 C        -1.8213637645        0.7204294783       -2.5518754478
 C        -0.4193090086        1.3601638051       -2.5880016713
 C        -0.1834281884        2.8305934553       -2.6006128049
 O        -1.3693112909       -0.0548990072       -0.3485694726
 O         0.5974507562        0.6095574609       -2.6223689186
 C        -1.7002042057       -0.6676219354       -3.2324142097
 C        -2.8714917875        1.4836388573       -3.3383287114
 C         1.2257629603        3.3341212389       -2.2846705482
 C         1.3827229080        3.5088797995       -0.7643178346
 C         2.4407733944        4.4609264633       -0.3267377003
 C         3.7480527088        3.6330605805        0.2177951158
 C         3.4137478564        2.3870091851        0.9868579040
 C         3.0139826433        5.5785180457       -1.2235603566
 C         2.0116191647        5.1470270292        1.1032055048
 O         0.7386179563        2.8529649839        0.0956100158
 O         4.7957322641        4.0894682691       -0.0542254946
 C         4.4636514017        2.0050475453        2.0167919629
 C         4.7347739168        0.5282218694        1.8637858790
 C         3.9211509092       -0.4999546100        2.7462573756
 C         2.6509487832       -0.7611904233        1.8350709712
 C         2.6538659824       -1.9692930430        0.7697559216
 O         5.5850336874        0.2466963896        1.1328774199
 O         1.7352607525        0.0253202722        1.8252439135
 C         4.9088825938       -1.7235381842        2.8789245436
 C         3.3127809977       -0.0359459598        4.1080361023
 C         3.8485106168       -2.0970474040       -0.2498239329
 C         3.8346504540       -0.9405888192       -1.2173534729
 C         4.6644779814       -1.0636354429       -2.5290400734
 C         6.1388937418       -1.6198309282       -2.1250915534
 C         7.2857126077       -1.1922511575       -3.0686135485
 C         3.9705019828       -2.0813468644       -3.4810260591
 C         4.7628066113        0.2687000989       -3.2608319013
 O         3.0630292958        0.0353340279       -1.0198807404
 O         6.3759490540       -2.3040534716       -1.1823485405
 C         8.5361212790       -2.0055534425       -2.9815193905
 C         8.4980182201       -2.9884471298       -4.1070613396
 C         9.8226334485       -3.7234013766       -4.4324386674
 C        10.7397750333       -2.6978324821       -5.1472795133
 C        11.3455643882       -3.0291417616       -6.5463598426
 O         7.4812539147       -3.0787981934       -4.7671610870
 O        10.8358107402       -1.5185974878       -4.7418184726
 C        10.5112403158       -4.1630562789       -3.0091424704
 C         9.4838261268       -5.1292033136       -5.2218948706
 H        -7.8881846932       -2.5225206058        7.4876657107
 H        -6.0884503304       -2.2630986154        7.4147250679
 H        -7.1422849952       -1.4984251417        6.3172988065
 H       -10.1054920271       -3.9238338759        3.3558002962
 H        -9.5545573184       -2.3562392491        3.6047977827
 H        -8.5934356056       -6.3476495122        5.5888258532
 H        -6.9194364099       -6.0299235756        6.2611016916
 H        -7.2723617443       -6.3528324146        4.5808890803
 H        -9.3673092798       -4.1627143594        7.0931170752
 H        -9.2283453332       -2.7362642078        5.9475673808
 H       -10.0327778535       -4.1107484782        5.3937870164
 H        -8.1486307598       -3.1964647644        1.2715817504
 H        -9.8728018194       -3.5636512800        0.9796773551
 H        -9.2939701648        1.7831183048       -0.0516662321
 H        -8.2722841109        1.5219321262        1.2965131602
 H        -7.7864855681       -2.7149819348       -0.7778739938
 H        -8.6624195760       -1.7093148926       -2.0925950746
 H        -9.5209136647       -2.8644782328       -1.1108111724
 H       -10.6122145997        0.3781815836       -0.2245426826
 H       -10.2931530985       -0.1977484501       -1.7065213048
 H       -11.1085624656       -1.2499244460       -0.4965748441
 H        -7.7286376971        3.4934171893       -0.5337195907
 H        -6.5913774242        2.2723143115       -1.0177841824
 H        -3.6351057066        0.6031431761        1.4647496330
 H        -5.2320925437        0.6928635412        0.5872159430
 H        -5.2759442077        4.0955821125       -1.4282209218
 H        -4.0541451264        5.0566765547       -0.6447346181
 H        -5.7582209196        5.2921098596       -0.2599171250
 H        -3.9058233701        3.4761029215        2.6143996469
 H        -3.4735735813        4.9339354609        1.7569338798
 H        -5.0752308292        4.7713726151        2.4672535503
 H        -3.4983138296       -1.0274455283       -0.2302045551
 H        -4.2881254205       -0.0598022734       -1.4517429179
 H        -0.5635184898        3.0808673213       -3.5568971017
 H        -0.7969632415        3.3894976031       -1.9527300200
 H        -0.7814825089       -1.0845101793       -2.8802305049
 H        -1.5315854265       -0.5467418283       -4.2770063147
 H        -2.5962532163       -1.2767094918       -3.0284900532
 H        -2.5493751977        1.8128107491       -4.3427633833
 H        -3.6634377358        0.7914925301       -3.4850740003
 H        -3.1212890682        2.3420205935       -2.7474043610
 H         1.2225164751        4.3325907497       -2.7006997168
 H         2.0148003799        2.7785135829       -2.7385855536
 H         2.3422758367        2.2867881671        1.1809647802
 H         3.4436937018        1.6006014838        0.2571666642
 H         3.4927763485        5.2271301568       -2.1159025969
 H         3.6753204869        6.2049940892       -0.6684307297
 H         2.2407090530        6.1809988401       -1.6238594031
 H         1.2173678058        5.8858556896        0.8547495976
 H         1.5938714123        4.4231268912        1.7502616850
 H         2.8278577964        5.6340506318        1.7037831905
 H         5.3579920566        2.6400552552        1.7343459959
 H         4.1159199242        2.2849496817        2.9614895622
 H         2.7854861976       -2.6831176354        1.5839576908
 H         1.6945254303       -2.1217832500        0.2686237327
 H         5.7192048111       -1.6568805021        3.6272172886
 H         5.4073887326       -1.8512769089        1.9247727379
 H         4.3366472497       -2.6125839097        3.0367427146
 H         3.0742925820       -0.9057472414        4.7088199525
 H         4.0558075351        0.6067967163        4.6509941273
 H         2.4217490835        0.5826339521        3.8816668789
 H         3.6483587736       -3.0541456348       -0.8486371745
 H         4.8320049540       -2.2787808564        0.2178972201
 H         6.8428357362       -1.0222001073       -4.0865801359
 H         7.5695559132       -0.1642175097       -2.7724349324
 H         3.5012819954       -2.8385144924       -2.8449478631
 H         4.6540311780       -2.4527286442       -4.2471290613
 H         3.1767027701       -1.5597969521       -3.9469811480
 H         5.1365391314        0.1442047919       -4.2631436708
 H         3.7735430540        0.6644285154       -3.2583632795
 H         5.5068791641        0.9449938449       -2.6775506294
 H         9.4224727770       -1.3970148092       -2.8180204637
 H         8.4906012721       -2.5284716205       -2.0491022775
 H        12.0203944378       -3.8794249143       -6.6356520794
 H        10.4689034864       -3.3362128712       -7.0900156399
 H        11.7308061654       -2.0905950037       -7.0125586158
 H         9.7506243018       -4.6812530669       -2.3605636587
 H        10.8216741790       -3.2461132349       -2.4197971808
 H        11.3733279959       -4.7753360019       -3.1310752360
 H        10.2980864520       -5.2159837782       -5.9669050858
 H         9.6033007939       -6.0267080938       -4.5579581886
 H         8.4532226185       -5.2260186165       -5.6308584476
 Na        0.8253575070        0.4497385074       -0.0794538138
