155

 C        -6.8283811771       -2.7069146222        6.7857222518
 C        -6.7914578987       -3.9900496637        5.8645899375
 C        -8.0512113308       -4.5726975827        5.2348679409
 C        -8.0288443635       -4.2117569226        3.6355415296
 C        -9.2319920525       -3.4121951468        2.9951127451
 C        -8.1152042275       -6.1456358216        5.2644308277
 C        -9.2975939476       -3.9262616261        5.9456982768
 O        -5.7202069164       -4.5175207910        5.7026477832
 O        -6.9583923003       -4.3804497953        2.9798350857
 C        -8.9783580513       -3.0726439663        1.5098302861
 C        -9.0899609319       -1.5645970869        1.1772056672
 C        -9.0988823384       -0.9708196492       -0.2921671852
 C        -7.9141434657        0.0664810899       -0.2087153642
 C        -8.1637582286        1.5918896636        0.1440227701
 O        -9.1863106819       -0.8028870026        2.1139688571
 O        -6.7507245438       -0.3152962841       -0.3813565464
 C        -8.8293592342       -2.1377151498       -1.3253605892
 C       -10.5516016736       -0.4628984536       -0.7261931205
 C        -7.1372326826        2.5577393933       -0.3416550467
 C        -6.2027475382        3.0400512013        0.7701239415
 C        -4.5981586864        3.4254450552        0.4948245545
 C        -3.6340433573        2.1204370050        0.2725867219
 C        -4.0672443503        0.7200999844        0.5349645401
 C        -4.5321446090        4.2898920610       -0.7653418361
 C        -4.2122159043        4.1616939844        1.7940913207
 O        -6.7272287275        3.2374832825        1.8389700817
 O        -2.4892499155        2.3930208000       -0.1901139066
 C        -3.5573670112       -0.1818966482       -0.6444104860
 C        -2.1301837239        0.1434819236       -1.0701522419
 C        -1.9122412783        0.7536041005       -2.5274662366
 C        -0.4943326234        1.3981402809       -2.5652339857
 C        -0.4084176924        2.8378977382       -2.2566772185
 O        -1.2183047569       -0.1209490136       -0.3777356595
 O         0.4927971651        0.6814956911       -2.6739247437
 C        -1.8310590163       -0.6302713778       -3.2865795188
 C        -3.0187848458        1.7216540503       -3.0882518389
 C         1.0105732794        3.5773802094       -2.1452520009
 C         1.4040718414        3.7226024008       -0.6531132286
 C         2.4967121084        4.7064912349       -0.1299855367
 C         3.8354703607        3.9562797502        0.3597160187
 C         3.5901565573        2.5866209885        1.0296649587
 C         2.8205983987        5.7273147394       -1.1467807600
 C         1.8843700980        5.2210706086        1.1299723062
 O         0.9522495461        2.8592389347        0.1225872974
 O         4.8622980897        4.5812618931        0.3020471897
 C         4.7182116491        1.8610048565        1.8316398073
 C         4.6557738722        0.3050412814        1.8945102139
 C         3.7122864211       -0.4154447111        2.7702431518
 C         2.4326718505       -0.6622775253        1.7856312907
 C         2.2018746216       -1.9526694035        0.8346012223
 O         5.3176549905       -0.3629642726        1.1712297649
 O         1.5947229756        0.2265345556        1.7354469696
 C         4.2321528332       -1.8534539712        3.2418446708
 C         3.1389567981        0.3661813818        4.0316305921
 C         3.4274828722       -2.1974022259       -0.2520002858
 C         3.5814252913       -1.0709628139       -1.3179932314
 C         4.5027754376       -1.2612300946       -2.5679778081
 C         6.0134643761       -1.6425692000       -2.1793165650
 C         7.2931955072       -0.9490932142       -2.6708798619
 C         3.9017638673       -2.5092452175       -3.3314242989
 C         4.3179719591       -0.0541615487       -3.5313137221
 O         3.0220717973        0.0347770598       -1.2203352841
 O         6.1690874635       -2.5890727978       -1.4180597377
 C         8.5798762244       -1.7453530295       -2.8112797598
 C         8.7237772795       -2.6284525653       -4.1144766694
 C         9.9890155720       -3.4267464721       -4.3119784917
 C        10.9484245672       -2.3325178827       -5.1443437014
 C        10.8351021525       -2.4538761681       -6.6136271045
 O         7.8559761356       -2.6473183580       -4.9148185743
 O        11.6569125790       -1.5705920467       -4.5149210488
 C        10.6115295669       -3.8256871027       -2.9509978845
 C         9.7707599847       -4.6803625558       -5.0614074725
 H        -6.4792261811       -2.9972770103        7.7669318673
 H        -6.1026128649       -2.0388060376        6.2793755805
 H        -7.7911699130       -2.2165265765        6.7219120767
 H       -10.0839147408       -4.1367760424        3.1046570380
 H        -9.4417385036       -2.5340910446        3.6428305294
 H        -8.3952894620       -6.5384196135        4.2518321937
 H        -8.8521943045       -6.3585364654        6.0353108352
 H        -7.2404090827       -6.6609119634        5.5433569947
 H        -9.2695616958       -3.9581473936        7.0781914445
 H        -9.3115353147       -2.8402227997        5.7994580420
 H       -10.2754814752       -4.3194056162        5.6394079650
 H        -7.9585810961       -3.4401591682        1.4690474800
 H        -9.5029854164       -3.8722160633        0.9205406897
 H        -9.0884854222        1.8616914414       -0.5235241349
 H        -8.5860273181        1.7315765912        1.1542544685
 H        -7.8866239138       -2.5677282022       -1.0279667093
 H        -8.8365749889       -1.7117316227       -2.3472285255
 H        -9.6967789461       -2.7726490278       -1.3526488712
 H       -10.9328507963        0.2586809339        0.0150199545
 H       -10.5364614704        0.0708821389       -1.6858038440
 H       -11.2363958611       -1.3506027771       -0.8823484794
 H        -7.6078837543        3.4752255412       -0.7771732682
 H        -6.7106622230        2.1850525576       -1.2436303994
 H        -3.6370012250        0.4071134402        1.5227110863
 H        -5.1396106190        0.6577863862        0.5275121576
 H        -4.9645508677        3.7845065340       -1.5915812209
 H        -3.5208775963        4.5327836616       -1.0026947838
 H        -5.1353830420        5.1968396685       -0.7495910501
 H        -5.0975361573        4.6379226796        2.2902030477
 H        -3.8260683984        3.5414276940        2.6337456180
 H        -3.5544213990        4.9746224185        1.6369776747
 H        -3.6403518156       -1.1808006934       -0.2907669328
 H        -4.3322605933       -0.1405605549       -1.4368012818
 H        -0.9722377338        3.4735333527       -2.9213237238
 H        -0.9348692996        2.9057342273       -1.3187464239
 H        -1.0966219278       -1.2743215801       -2.8026478525
 H        -1.4203630297       -0.3957548613       -4.2759041006
 H        -2.8551340344       -1.0857066627       -3.3414011535
 H        -2.6238795323        2.0191449273       -4.0723518343
 H        -3.8239961749        1.0698026233       -3.3591544197
 H        -3.3283943567        2.5436061256       -2.4256802077
 H         0.8494356900        4.5344536055       -2.6344555948
 H         1.7917891880        3.0393591616       -2.6708948448
 H         2.6267245161        2.4915824828        1.4882261642
 H         3.3200030399        1.8988750910        0.2100937541
 H         3.0085217572        5.4262862568       -2.1861976867
 H         3.7693943103        6.1330188405       -0.8604688127
 H         2.0990725456        6.5949465688       -1.1656972639
 H         0.9093282769        5.8433514908        0.8798515041
 H         1.6821051015        4.3924076453        1.7882384978
 H         2.4999551593        5.8464783125        1.7893570968
 H         5.7457878881        2.1120971741        1.4326244641
 H         4.6357564927        2.3078458431        2.8071003732
 H         2.1446374535       -2.8983479043        1.3943709007
 H         1.1969216924       -1.8143234067        0.4150213843
 H         4.9899214543       -1.8961598129        4.0623166535
 H         4.5068654800       -2.4904685988        2.3988965284
 H         3.3813765654       -2.3218117033        3.7482583412
 H         2.3129455607       -0.2655649407        4.3764482256
 H         3.9909433406        0.2707376883        4.7463272887
 H         2.7186507230        1.3961706122        3.8402649277
 H         3.2008871250       -3.2368252826       -0.6897090404
 H         4.3010941783       -2.3516720679        0.4005459395
 H         7.1672819325       -0.3836688946       -3.6351629976
 H         7.3060558834       -0.1765052235       -1.8665307882
 H         4.2055579126       -3.4044427599       -2.7763545935
 H         4.3123088487       -2.5405665430       -4.3409792037
 H         2.8617567226       -2.3860906940       -3.3575549051
 H         4.9293436728       -0.3108396354       -4.3961701610
 H         3.3221720819       -0.0649696004       -3.9692112722
 H         4.6642185327        0.8393215439       -2.9693601648
 H         9.4599642802       -1.0738048389       -2.6657966509
 H         8.6272949329       -2.3966682578       -1.9297157103
 H        11.4913673121       -3.2808644211       -6.9436322963
 H         9.7934508313       -2.6802362056       -6.8432418353
 H        11.2200612243       -1.5478786587       -7.1450040137
 H         9.7944133393       -4.4160796247       -2.4528619661
 H        10.7131695014       -2.9617680641       -2.2356831518
 H        11.4847311129       -4.4811319690       -3.0080871450
 H        10.6383680102       -5.4457215594       -5.0576201689
 H         8.9328427455       -5.1416998913       -4.4850254132
 H         9.5261941476       -4.4967146992       -6.1271596798
 Na        0.9446442200        0.7314326398       -0.3363655125
