155

 C        -6.4830763893       -3.3726672832        6.0044764043
 C        -6.9407743040       -4.8590058022        5.7601537835
 C        -8.3468252525       -5.0560635762        4.9518972010
 C        -8.0874460067       -4.3968898205        3.5143359588
 C        -9.0217075847       -3.3561469932        2.9639456006
 C        -8.6135647835       -6.6180299694        4.7297575932
 C        -9.3332516647       -4.3041351945        5.7690372219
 O        -6.2476580096       -5.7269811920        6.2722579209
 O        -7.0894464406       -4.7730670182        2.9034754467
 C        -8.6281943530       -2.9018602033        1.5443152502
 C        -8.7428962663       -1.4361112182        1.2183504469
 C        -8.9199619311       -0.9043502416       -0.3384313945
 C        -7.7271328865       -0.0033130299       -0.6924403099
 C        -7.9954966656        1.4555324126       -0.4536862739
 O        -8.5392767158       -0.5129394117        2.0028319322
 O        -6.7282857035       -0.5673259957       -1.1343047392
 C        -9.0196687732       -2.1718232848       -1.2751929427
 C       -10.2872463566       -0.1756872150       -0.3664013200
 C        -6.7456309293        2.4378879639       -0.6069176460
 C        -6.1545093923        2.8425121422        0.6931344151
 C        -4.7240889927        3.4707622508        0.6308784732
 C        -3.6280134907        2.3717093378        0.3545167047
 C        -3.8653304127        0.9021092673        0.5988656699
 C        -4.4001697521        4.5147721054       -0.4387291211
 C        -4.2821996463        4.0014896580        2.0119993806
 O        -6.7377648453        2.5743802048        1.7730623276
 O        -2.5322118422        2.5941380400       -0.0876070448
 C        -3.5936435793        0.0012607318       -0.6765395629
 C        -2.1966193245        0.2674134793       -1.2122194884
 C        -1.9816256105        0.9208230230       -2.6045538030
 C        -0.6641444086        1.8526492778       -2.5748184791
 C        -0.6814357137        3.3690009214       -2.3341629109
 O        -1.2626173077       -0.3926209702       -0.5991798582
 O         0.4540744927        1.3088101980       -2.6185707449
 C        -1.9090891717       -0.3265063586       -3.5422407958
 C        -3.1931883724        1.8032208074       -3.1310324192
 C         0.7428077990        3.9182950251       -2.0290587095
 C         1.3501229382        3.6334309418       -0.6703314983
 C         2.4813348627        4.6476011321       -0.1204556472
 C         3.6460971744        3.8628705785        0.6673317239
 C         3.6826242437        2.2879441043        0.5192912618
 C         3.1383293268        5.6104589076       -1.0943246819
 C         1.8733507776        5.4835393801        0.9834681156
 O         0.9059394050        2.8073525143        0.0711032296
 O         4.2817640625        4.3652779956        1.5340283687
 C         5.0758716376        1.7351621943        1.0651396838
 C         4.9619674384        0.2388797485        1.7103234167
 C         3.7173369923       -0.2262411659        2.6810142773
 C         2.5414940260       -0.6050089577        1.7634655762
 C         2.5576961660       -2.0148065948        1.0097380612
 O         5.6454644495       -0.6418276064        1.4361710206
 O         1.6745304923        0.1894829924        1.5626854647
 C         4.1810069641       -1.5752485763        3.4151757569
 C         3.2711030064        0.7176669483        3.7961231917
 C         3.6323205000       -2.1928565212       -0.1189512982
 C         3.4372186991       -1.2629290324       -1.3413857486
 C         4.2397663982       -1.7150911261       -2.5652846853
 C         5.7490020236       -1.8757338894       -2.0710650006
 C         6.8644701909       -0.8659972177       -2.3590198300
 C         3.5891689512       -3.1858953040       -3.0010215088
 C         4.2119035981       -0.7040958927       -3.8032333716
 O         2.8049342471       -0.2323172343       -1.3287055484
 O         6.0544367658       -2.8452846448       -1.4352965980
 C         8.2691114079       -1.5950418845       -2.3394217073
 C         8.6579024454       -2.0315580619       -3.8159092300
 C        10.0046280580       -2.7807940583       -3.9539762097
 C        11.0072531115       -1.8824488798       -4.8392030518
 C        10.4673166319       -1.1758799481       -6.0963008838
 O         7.9446175868       -1.5869653269       -4.7911917264
 O        12.1932491387       -1.9182794140       -4.5745559870
 C        10.7602002086       -3.1259831355       -2.5779193147
 C        10.0168895383       -4.0339551667       -4.8247341600
 H        -5.3946910014       -3.3659408178        5.9238670295
 H        -6.9479347460       -2.7415539367        5.2919673934
 H        -6.8658970446       -3.1201191551        7.0082735717
 H       -10.0408576845       -3.7089169255        3.0496324363
 H        -8.8374280384       -2.4846495329        3.5884714453
 H        -9.6054633930       -6.8534756224        4.8955495320
 H        -8.1503689922       -7.2684293317        5.4499967994
 H        -8.2458063222       -6.9062838488        3.7221361317
 H        -9.4274004917       -4.7900306402        6.7971662920
 H        -9.0741541800       -3.2242925486        5.8825368507
 H       -10.3540688949       -4.2135707832        5.4273817598
 H        -7.4927656237       -3.1425053025        1.2952855346
 H        -9.1240752195       -3.5752760349        0.8622098195
 H        -8.6630824471        1.5556595435       -1.2145420734
 H        -8.5402944445        1.7366074912        0.4141338558
 H        -8.1408150072       -2.8102305214       -1.2512841981
 H        -9.0250348200       -1.8168129882       -2.3154359148
 H        -9.8671375815       -2.6395511830       -0.9242290045
 H       -10.2162193489        0.5771121196        0.4100103826
 H       -10.6002063234        0.1502699138       -1.3339594470
 H       -11.1464280803       -0.6102855365        0.0560555021
 H        -7.0064383697        3.3204888472       -1.1447502361
 H        -6.0858285675        1.9253110978       -1.3522947379
 H        -2.9942999464        0.6927874714        1.1951008096
 H        -4.7853469614        0.5974295915        1.1988152405
 H        -4.1748723558        4.0392474928       -1.3520307634
 H        -3.5984857009        5.2038193772       -0.2262040930
 H        -5.2731930283        5.1140432380       -0.5375832134
 H        -3.2519823974        3.7898151604        2.2745630554
 H        -4.4318585513        5.0877751097        2.1615604448
 H        -4.9476723544        3.5380989969        2.8011116163
 H        -3.7034983054       -1.0344360121       -0.3526939641
 H        -4.2884956103        0.1821189135       -1.4139562540
 H        -1.1533497083        3.7874420582       -3.1563101167
 H        -1.2373224849        3.5520267273       -1.4356985936
 H        -1.1792934479       -1.0608828567       -3.1663720516
 H        -1.8151799029        0.0555038296       -4.5402492895
 H        -2.8831625096       -0.8027176143       -3.4428890327
 H        -2.7925464339        2.5473472070       -3.8322335039
 H        -3.9125121764        1.0873359192       -3.5166914910
 H        -3.6367808299        2.2802022255       -2.2940746740
 H         0.8856622523        4.9851588035       -2.1722446417
 H         1.3858674604        3.5089784911       -2.7880929550
 H         2.8979269887        1.7578785911        1.1481898150
 H         3.5312040651        2.0956265615       -0.5361076437
 H         3.6476474893        5.0450837561       -1.8920936304
 H         3.9169388320        6.2901731791       -0.6815365194
 H         2.4552337179        6.2166985083       -1.5718740262
 H         1.0420782035        6.1491024814        0.7696391380
 H         1.4513078578        4.8033854303        1.6858847425
 H         2.6513702529        6.1635173874        1.4600637821
 H         5.8071930358        1.7612752593        0.2806136755
 H         5.5077638796        2.3918466693        1.8448257216
 H         2.6425674648       -2.6372851801        1.9037176531
 H         1.6111126584       -2.2655415342        0.5317267597
 H         4.8713549539       -1.3470339271        4.2140794607
 H         4.7065931371       -2.3826998737        2.8434991302
 H         3.2589999891       -1.9939614575        3.8308915635
 H         2.9078188994       -0.0551005479        4.5145835069
 H         4.2095496987        1.1836171725        4.2134386315
 H         2.4763151103        1.3840204350        3.4805244453
 H         3.4915671276       -3.1908737143       -0.3749519194
 H         4.6104732756       -2.0398334589        0.4300537214
 H         6.6337399959       -0.2366532010       -3.2510073782
 H         6.8968217808       -0.2103468114       -1.4413591410
 H         4.0695491527       -3.9799145436       -2.4805393463
 H         3.7398389422       -3.3257937141       -4.0531024442
 H         2.5181352462       -3.1464674345       -2.8037778823
 H         4.9975852829       -0.9451234785       -4.4603748101
 H         3.2259446481       -0.8175134381       -4.1320395574
 H         4.1546429936        0.3437913997       -3.3784994213
 H         8.9986705718       -0.9611680395       -1.8671045714
 H         8.0874458800       -2.4932699901       -1.7445302295
 H         9.8597028462       -1.8441979384       -6.6924375172
 H        10.0198156742       -0.2029228613       -5.8451651303
 H        11.3257569924       -0.9953287900       -6.7830606530
 H        10.0789588954       -3.8589615039       -2.0011367805
 H        11.0016890139       -2.1809097285       -1.9429694068
 H        11.6840734068       -3.7004053343       -2.6015808004
 H        11.0754434150       -4.3259031055       -5.1001057240
 H         9.5405920609       -4.8938960204       -4.2297395255
 H         9.3790059693       -3.9136572821       -5.7891490537
 Na        0.7882361113        0.5983474375       -0.3833869657
