155

 C        -6.1806585417       -3.8196831620        5.6558274999
 C        -7.0354532713       -5.0955760520        5.7988186470
 C        -8.3608190939       -5.1760910235        4.8377814502
 C        -7.9516703417       -4.4478929159        3.5422918603
 C        -8.7317149066       -3.1542914153        3.0305855321
 C        -8.6240054264       -6.6914755040        4.7197396475
 C        -9.5400264370       -4.5783204908        5.6215183817
 O        -6.6248379324       -6.0578087857        6.4189996751
 O        -7.1342391409       -4.8735145517        2.8006309877
 C        -8.5473272559       -2.8425320749        1.5188426815
 C        -8.6284940606       -1.3553848899        1.1796798545
 C        -8.9777891320       -0.8929030228       -0.4018166475
 C        -7.8441812456       -0.0006045890       -0.8576795593
 C        -8.0572328731        1.5778903451       -0.6411802342
 O        -8.3563464547       -0.4722958795        1.9320547809
 O        -6.7131690361       -0.3158757451       -1.2465324749
 C        -9.0672459648       -2.1821191818       -1.3458674642
 C       -10.3515304698       -0.3157072485       -0.3993674769
 C        -6.7397830613        2.3852738184       -0.7207086196
 C        -6.0523263604        2.6731101097        0.6042003691
 C        -4.6456426663        3.3823666833        0.8510729321
 C        -3.6054577863        2.3706302668        0.5149906227
 C        -3.8039551391        0.8971787978        0.7448573742
 C        -4.6772479906        4.6356567553       -0.0979592241
 C        -4.4213742020        3.8938878174        2.3021352411
 O        -6.6020036422        2.5318062864        1.6717686542
 O        -2.6767034765        2.6838011035       -0.2465764648
 C        -3.6630241667        0.1219547530       -0.6831130502
 C        -2.2443913198        0.3629693931       -1.2597564049
 C        -1.9882153998        1.1178048786       -2.6198996050
 C        -0.6053623187        1.8797157171       -2.4838162578
 C        -0.6516469598        3.3951832899       -2.3755186082
 O        -1.3386935883       -0.2319096558       -0.7931810407
 O         0.3841070549        1.1876275248       -2.5401481349
 C        -1.6298427603        0.0368127496       -3.7438560222
 C        -3.2012596587        1.9526928163       -3.0714684613
 C         0.6562489411        4.0804222460       -2.1212903022
 C         1.3918265978        3.7645731674       -0.8089310964
 C         2.4676695751        4.6657953814       -0.1465697229
 C         3.5263516386        3.7656411455        0.7274717656
 C         3.8256351192        2.2402737428        0.3202565675
 C         3.2832424954        5.5337251623       -1.2114933914
 C         1.6616159035        5.5319431419        0.8737024815
 O         0.9699657643        2.8045920165       -0.1732489523
 O         3.9771869344        4.1843456031        1.7600651884
 C         4.9250017746        1.7479634952        1.2924420589
 C         5.0231108480        0.2912136427        1.7139229630
 C         3.9609889797       -0.3331985318        2.7328780646
 C         2.7193442109       -0.7173523984        1.7644320142
 C         2.4771616362       -2.0746509259        1.0990797480
 O         5.8678143805       -0.5686213700        1.3045938087
 O         1.9208352706        0.2079025157        1.5367288683
 C         4.5794478466       -1.4429125620        3.5143941098
 C         3.2380978099        0.7243351315        3.6657392558
 C         3.5845320684       -2.2893676526        0.0233045264
 C         3.4208449816       -1.4365874343       -1.2406231363
 C         4.2349062148       -1.9100501807       -2.5889214861
 C         5.7447592666       -2.1477845360       -2.0667325843
 C         6.7254428401       -0.9824491518       -2.2387179257
 C         3.7010678931       -3.2457614021       -2.9688786995
 C         3.9957294468       -0.8537440548       -3.7084586145
 O         2.6786637117       -0.4740235059       -1.3589288643
 O         5.9977303942       -3.1496735477       -1.4689913980
 C         8.2029364150       -1.3718982996       -2.2060030864
 C         8.8028410153       -1.7313448133       -3.6524384895
 C        10.0826282213       -2.5444370180       -3.8765668528
 C        11.1366372206       -1.7020973897       -4.7752101876
 C        10.5392446094       -0.7285971176       -5.8777947129
 O         8.0782817901       -1.5885336827       -4.5745293070
 O        12.3474016132       -1.8008891690       -4.6085612647
 C        10.7655275763       -2.8566834451       -2.5604285236
 C         9.6347372434       -3.8119096537       -4.7211558774
 H        -5.6908280059       -3.9674621577        4.7115693653
 H        -6.8694303024       -2.9794249758        5.5409191570
 H        -5.4684821943       -3.7791888551        6.4546898800
 H        -9.7750510310       -3.4301641831        3.2521440165
 H        -8.4247206053       -2.2827371908        3.6100182944
 H        -9.6587474842       -6.9572809536        4.4172857166
 H        -8.6576040561       -7.0316339720        5.7582963860
 H        -7.8413243737       -7.2605490456        4.2714375565
 H        -9.6067644355       -5.0353806861        6.5373683547
 H        -9.5370486692       -3.5214079747        5.7561405723
 H       -10.5152194637       -4.7254360328        5.1310874515
 H        -7.6798839262       -3.3127614145        1.2119466885
 H        -9.3227590430       -3.4548243396        0.9950832625
 H        -8.9379557602        2.0798322407       -1.2038392371
 H        -8.3764269208        1.7195714863        0.4067628958
 H        -8.0856863504       -2.6524653053       -1.3041860385
 H        -9.2157412117       -1.8467351249       -2.3305477996
 H        -9.7656045352       -2.9614278582       -0.9047592300
 H       -10.4981780504        0.4368376928        0.3492930863
 H       -10.6782910012        0.1116460612       -1.3415352266
 H       -11.0897781796       -1.0276099037       -0.0807061526
 H        -6.9965724982        3.3265559115       -1.2845612101
 H        -6.1829215688        1.7900435913       -1.4409076612
 H        -3.0362015497        0.5359218070        1.4606259753
 H        -4.7332424430        0.5084409332        1.0953727037
 H        -4.5759325739        4.3076818810       -1.1722602125
 H        -3.8413440162        5.2794970567        0.1449638366
 H        -5.5691854027        5.2489771736        0.0863639735
 H        -3.3619958893        3.7786831759        2.6017150987
 H        -4.6777908721        4.9292439900        2.4724322924
 H        -5.0629597902        3.3688919573        2.9951921055
 H        -3.6097614367       -0.8962306850       -0.2550546757
 H        -4.6441458478        0.1997222066       -1.2937253544
 H        -1.0851131115        3.7083072613       -3.4063990812
 H        -1.3594715497        3.7045958658       -1.5749824876
 H        -0.7571189756       -0.5008949516       -3.4360834122
 H        -1.4576425753        0.6476876627       -4.6342045843
 H        -2.4699963690       -0.6184109478       -3.8853007706
 H        -2.8494952464        2.4004017457       -3.9804775472
 H        -3.9502381363        1.2103331056       -3.3377486937
 H        -3.5368643249        2.7419454324       -2.3704526344
 H         0.5478554615        5.1845405652       -2.0781821403
 H         1.2515029081        4.0083111137       -3.0696404725
 H         2.8663397605        1.8095801307        0.5819217633
 H         4.0592109600        2.1649082465       -0.7926473148
 H         4.0051724798        4.9493120364       -1.7354442598
 H         3.8026556979        6.3159791413       -0.6879792736
 H         2.6649331243        5.9775501914       -2.0379710886
 H         1.0779752395        6.3083823849        0.4864582940
 H         0.8798661006        4.9622775993        1.4013214810
 H         2.3221829739        6.0010417420        1.5380679782
 H         5.8423838451        1.9912617421        0.7026279164
 H         4.9900425955        2.4443051429        2.1374195154
 H         2.2823391806       -2.8984764585        1.8171381505
 H         1.5738764394       -1.8662881595        0.5066611792
 H         5.5341220737       -1.1487589495        3.9302030875
 H         4.7888353260       -2.2749407491        2.9076432022
 H         3.8835122799       -1.8129691471        4.2454118702
 H         2.3495513173        0.2510659364        3.9823238077
 H         3.8412219517        1.0048871290        4.4601827072
 H         3.0271192509        1.5388145331        2.9992135762
 H         3.4878147139       -3.3804427646       -0.1939621256
 H         4.4540176515       -2.0871530908        0.5413188879
 H         6.6292658292       -0.6482754634       -3.2526587215
 H         6.3930904439       -0.2145943899       -1.5694929097
 H         4.2402410427       -3.9760824375       -2.3369508156
 H         3.7882986278       -3.4696839316       -4.0367202632
 H         2.6457150036       -3.2998241093       -2.7176404797
 H         4.6745241740       -1.2192266691       -4.4936522067
 H         2.9154096370       -0.6482376155       -3.8069851438
 H         4.4247212527        0.0210094991       -3.3649069853
 H         8.8296286272       -0.4678847247       -2.0055838564
 H         8.4130051942       -2.1681724897       -1.4884850399
 H         9.6942624893       -1.2821568244       -6.3215064576
 H        10.2020226980        0.1662650570       -5.3549065325
 H        11.1642672113       -0.4174467219       -6.6950078831
 H        10.1360768157       -3.4826107864       -2.0225945916
 H        10.9499699765       -2.0027754765       -2.0162988911
 H        11.7165479159       -3.3832155082       -2.5986575012
 H        10.3205323281       -4.5990927274       -4.8535058028
 H         8.7201002903       -4.1251521475       -4.3000675009
 H         9.2531132657       -3.4569355636       -5.6319742433
 Na        0.6874119812        0.4775099993       -0.3173025842
