155

 C        -5.7501028310       -4.7611445246        5.4265633626
 C        -7.1967556711       -5.4277022572        5.5913464665
 C        -8.3007285535       -5.3031211711        4.4941348746
 C        -7.8984584468       -4.5898429528        3.1866521044
 C        -8.2083669364       -3.1166303514        2.9239833378
 C        -8.8043739953       -6.7720047933        4.1680507620
 C        -9.3684704354       -4.5401911923        5.2639623451
 O        -7.4463247168       -5.9685504863        6.6929507626
 O        -7.2774878209       -5.1020544371        2.3223073525
 C        -8.4887450185       -2.8331042837        1.4613520631
 C        -8.4476171610       -1.3664442247        1.1603653830
 C        -8.8078463174       -1.0581274458       -0.3573997683
 C        -7.7486770640        0.1395347420       -0.8499509467
 C        -8.1212533941        1.6001097796       -0.5036188058
 O        -8.2257961796       -0.4264998914        1.9285142987
 O        -6.7733574870       -0.1718055731       -1.4565449326
 C        -8.8068367954       -2.2930174382       -1.2728282888
 C       -10.2231882159       -0.4291722781       -0.2944275145
 C        -6.9207843384        2.6039341257       -0.5161492090
 C        -6.4009411667        2.6876940772        0.9305844503
 C        -4.9145105618        3.4210638308        1.0576586893
 C        -3.7767031740        2.4851848929        0.3729763584
 C        -4.0036564657        0.9253298481        0.4386046776
 C        -5.0258617103        4.8161061077        0.5340809081
 C        -4.4845972255        3.3391638757        2.5278750804
 O        -7.0713697878        2.2471523528        1.8836777413
 O        -2.7954542724        2.8943997252       -0.1903324950
 C        -3.6504169457        0.2927593596       -0.9296814022
 C        -2.2128042064        0.5548846632       -1.4194275285
 C        -2.0070142177        1.3303895360       -2.7569245778
 C        -0.6034710330        2.0154997832       -2.6640316867
 C        -0.5813311246        3.5230444933       -2.4783175539
 O        -1.2928296371       -0.0716339671       -0.9106084883
 O         0.4032323976        1.2562312956       -2.7265851889
 C        -1.8438633544        0.1326435699       -3.7497230743
 C        -3.1816331198        2.2633811119       -3.2289741689
 C         0.8667564682        4.0716455759       -2.1541005375
 C         1.4054294933        3.6162574316       -0.7507351656
 C         2.5162408798        4.5901205431       -0.1601016740
 C         3.3399680188        3.8507397604        1.0017818506
 C         4.0375351796        2.4123880587        0.5261053199
 C         3.3790517705        5.0281931336       -1.3669988414
 C         1.7221010336        5.7239043988        0.3932059112
 O         0.9764833786        2.6617568650       -0.1508017915
 O         3.2544227519        4.2589263688        2.1094798976
 C         5.1478396784        1.9602062254        1.5151150613
 C         5.0694594199        0.4802109898        1.5995577407
 C         4.0992328291       -0.2308038413        2.6384753110
 C         2.8505297516       -0.6676330223        1.8180715859
 C         2.6824484212       -2.0707131809        1.2660165146
 O         5.7569215278       -0.1367475561        0.7843994840
 O         1.9552493728        0.1677374422        1.7310639736
 C         4.9662904749       -1.3492648031        3.1842234744
 C         3.6530715223        0.7386260521        3.8051635162
 C         3.6804648111       -2.6050203026        0.1756243667
 C         3.3950610560       -1.9376506426       -1.1326613531
 C         4.2293462477       -2.2540879404       -2.3774688808
 C         5.8380634781       -2.3224372043       -2.0394780524
 C         6.6503144460       -0.9949356836       -1.9993038468
 C         3.8767782335       -3.7223764932       -2.9031033662
 C         3.9767689161       -1.1162235810       -3.5011704791
 O         2.5951133926       -1.0273766254       -1.1917301080
 O         6.2958877100       -3.3833454513       -1.8430578654
 C         8.1983772068       -1.3222578047       -2.0289027303
 C         8.6402330832       -1.5109398931       -3.5107401018
 C        10.0203505835       -2.2478335026       -3.7031677198
 C        11.0151356738       -1.3121546778       -4.5179554231
 C        10.5076604881       -0.1856191200       -5.3918510882
 O         8.0362495226       -0.9545522889       -4.4203437621
 O        12.1862053503       -1.6729313259       -4.5728130683
 C        10.5585758980       -2.4622874951       -2.2710816898
 C         9.8535721417       -3.4952224314       -4.6511087707
 H        -5.7123630890       -4.2243606687        4.5035541056
 H        -5.7005073753       -4.0483132307        6.2217829584
 H        -5.0296243018       -5.5432154028        5.3967359037
 H        -9.0300146308       -2.6502669622        3.5076809474
 H        -7.3335118848       -2.5608264071        3.2172853381
 H        -9.7185397271       -6.7480586150        3.6158992211
 H        -8.9023964161       -7.3700030624        5.0514493643
 H        -8.0796921452       -7.3029357203        3.5333084323
 H        -9.6629415324       -5.0752957985        6.1196649809
 H        -9.0543797913       -3.5452347617        5.6475999746
 H       -10.3092377385       -4.3934246616        4.6215903335
 H        -7.8047423221       -3.2908706404        0.7644429184
 H        -9.5445687661       -3.2089945364        1.1551121704
 H        -9.0496541994        1.8668750782       -0.9816451751
 H        -8.3981697414        1.6283930659        0.5539057235
 H        -7.8564932638       -2.8002137298       -1.2630957460
 H        -9.1630541585       -1.9842632815       -2.1906847036
 H        -9.6067608802       -3.0042752967       -0.9362670786
 H       -10.5314484226        0.3973831575        0.2681340331
 H       -10.6309694955       -0.1933219279       -1.2232492307
 H       -10.7769350324       -1.2722404812       -0.0287624595
 H        -7.3602130071        3.5499736890       -0.8979240954
 H        -6.1308878508        2.2007036421       -1.1093821828
 H        -3.5375773974        0.3188747876        1.1930036002
 H        -5.0306689350        0.8246762015        0.6995734786
 H        -5.3848613473        4.7574517624       -0.4942690401
 H        -4.1230485046        5.3469110765        0.6231768691
 H        -5.7858288176        5.3165128009        1.0686345733
 H        -4.0479851403        4.3039284365        2.8557820893
 H        -5.4076506052        3.1255596617        3.0668858364
 H        -3.7418074730        2.5465348157        2.8356165367
 H        -3.6978780450       -0.8199735885       -1.0204972077
 H        -4.3615104022        0.6547198253       -1.7109791490
 H        -0.8128735166        4.1152268510       -3.3860517753
 H        -1.2697138418        3.8106443628       -1.6924906526
 H        -0.9619838176       -0.3843811360       -3.3668086506
 H        -1.5627991599        0.4776735587       -4.7559367858
 H        -2.7534458169       -0.4234521566       -3.7404959970
 H        -2.8318788439        3.1185773144       -3.7435451420
 H        -3.8768738301        1.8106888724       -3.9430286844
 H        -3.6161094761        2.5998788270       -2.2870640896
 H         0.7530974322        5.1667094334       -2.2180281130
 H         1.6154008750        3.9328236165       -2.9557119893
 H         3.1590999256        1.8422840294        0.7415501993
 H         4.4498918560        2.4428606520       -0.5394356899
 H         3.5517461652        4.2293165471       -2.0245533137
 H         4.3205475426        5.4622965560       -1.0407898233
 H         2.8755113046        5.7701542296       -1.9460706096
 H         1.0977798485        6.1822054826       -0.2491740365
 H         1.1021389204        5.4572921005        1.2584887818
 H         2.3863061653        6.4709857050        0.8171821156
 H         6.0728155691        2.0757825778        0.9408066787
 H         5.2658363737        2.4529919831        2.4861103499
 H         2.6389858915       -2.7473962952        2.1457891149
 H         1.6766580296       -2.0761689652        0.8058483925
 H         5.6285334033       -0.9371976941        3.9540186514
 H         5.5352842464       -1.9122110737        2.4521455430
 H         4.3242528946       -2.1095984151        3.6885983271
 H         3.5969993359        0.1214166073        4.7222909471
 H         4.3333588229        1.5663547991        3.9610403778
 H         2.6847209389        1.1405717155        3.4917307406
 H         3.5755107944       -3.6896917758        0.3113775171
 H         4.6480232412       -2.3207949725        0.4884757695
 H         6.3160488961       -0.2328951481       -2.6875399604
 H         6.5456408968       -0.5731595373       -0.9857449299
 H         3.7648822855       -4.4081567063       -2.0975918955
 H         4.5582569760       -4.0279558059       -3.6618907927
 H         2.9073330088       -3.6438894516       -3.3729012094
 H         4.8763654440       -1.1931689391       -4.0712237009
 H         3.1315651086       -1.5190667931       -4.0255176165
 H         3.9223797622       -0.1293713608       -3.1495286425
 H         8.7675401687       -0.4989291890       -1.5863483470
 H         8.3798389133       -2.2527744351       -1.5147317614
 H         9.7518142327       -0.6815580677       -6.0366787831
 H         9.9443975327        0.5764102347       -4.8202145402
 H        11.2553747301        0.3651375181       -5.9384811204
 H         9.9409741538       -3.0551398874       -1.5559889675
 H        10.7783630878       -1.4916336062       -1.7655907831
 H        11.5508183180       -2.9775329099       -2.3490020486
 H        10.8355990261       -3.7902342813       -4.9923667214
 H         9.2791175481       -4.3636372593       -4.1937158294
 H         9.1832270961       -3.1745348339       -5.5287849598
 Na        0.8835827856        0.1737388086       -0.5245155959
