155

 C        -5.9451052875       -5.9881017825        4.9352816208
 C        -7.3951814046       -5.7228132500        5.4390781987
 C        -8.4063774768       -5.4152632261        4.3349604121
 C        -7.6754539135       -4.7395319864        3.0848283098
 C        -7.6670117548       -3.1809123600        2.7662748651
 C        -8.9197692413       -6.8156132789        3.8406140375
 C        -9.5824705041       -4.5674373021        4.9016529518
 O        -7.7391442312       -5.6770724570        6.5967051873
 O        -7.0783335577       -5.3905647342        2.2769562378
 C        -8.3238353717       -2.9784481795        1.3678145050
 C        -8.2912868079       -1.4931739895        0.9932324037
 C        -8.7507311558       -0.9511029601       -0.4418002054
 C        -7.8784088473        0.3677081977       -0.7884390482
 C        -8.3367329596        1.7310816215       -0.2513217615
 O        -8.0401126084       -0.5852195030        1.7537892874
 O        -6.7772642791        0.2982680771       -1.2626758151
 C        -8.3371765679       -2.0465955299       -1.5262226818
 C       -10.3871609526       -0.7846118968       -0.5283773697
 C        -7.0759648576        2.6802081588       -0.1727283695
 C        -6.6572290054        2.6358180455        1.3387332362
 C        -5.0845652402        3.1253270338        1.3840407150
 C        -4.2973780757        2.4866474315        0.2204668289
 C        -4.2299195074        0.9441250949        0.2736809160
 C        -5.0398286805        4.7622067741        1.1001041658
 C        -4.4634259128        2.8201476837        2.8167698461
 O        -7.3841082625        2.3415136632        2.2452599130
 O        -3.5500109505        3.0685972492       -0.5095587780
 C        -3.9235432109        0.4279331016       -1.1533626753
 C        -2.4515338892        0.7206861909       -1.4972104054
 C        -2.0609287303        1.2232719567       -2.9660499418
 C        -0.5875018181        1.8559267118       -2.7065098339
 C        -0.4628437458        3.2961855456       -2.3034809373
 O        -1.5985268992        0.5181473418       -0.5990844031
 O         0.3839810407        1.0688195287       -2.9661692422
 C        -1.9187173160        0.0101888495       -3.8931575209
 C        -3.0975523544        2.2272685171       -3.4908612807
 C         0.9709732915        3.9242416801       -2.2673827060
 C         1.5835231382        3.7664317890       -0.7696181260
 C         2.6301651861        4.6854741200       -0.1969592782
 C         3.2302762768        3.9346457018        1.0902716602
 C         3.9589136661        2.6310564184        0.7604654974
 C         3.7801342851        5.1169138986       -1.2090699194
 C         1.9265398512        6.0787015353        0.1819247730
 O         1.1559021684        2.8684111262       -0.0799439770
 O         2.9022317648        4.2806327666        2.1742100242
 C         5.0009113490        2.2552061671        1.7889490933
 C         5.1727705552        0.7074381145        1.8230542916
 C         4.3218999804       -0.2075435015        2.7091759638
 C         3.1532331604       -0.7644187535        1.6747820189
 C         3.1268587903       -2.2916460970        1.3533220108
 O         5.6094545025        0.1053984113        0.8862580180
 O         2.2674621568       -0.0872097455        1.2884983447
 C         5.1823104964       -1.3441606555        3.1763060618
 C         3.6757911299        0.4169808162        3.9612515243
 C         3.9667404767       -2.6176553517        0.0755203758
 C         3.4888899559       -2.0005633497       -1.2962389028
 C         4.2278437715       -2.5787756516       -2.4640879300
 C         5.8244969459       -2.4986001546       -2.0953453817
 C         6.5662035482       -1.0441430164       -2.0613707662
 C         3.8476709255       -4.0900026231       -2.5340874006
 C         3.9521228032       -1.9805715935       -3.8450875588
 O         2.5259959712       -1.2358778696       -1.2909884712
 O         6.4543001313       -3.4859561873       -1.7265642286
 C         8.1162892163       -1.1293232785       -1.8503886466
 C         8.7784029825       -1.2358940491       -3.2434841401
 C        10.0951465050       -1.9592027516       -3.5491394791
 C        11.0762384941       -0.9042420186       -4.4574866119
 C        10.4501957942        0.3049214647       -4.9552688970
 O         8.1062929157       -0.7503090039       -4.2053867671
 O        12.2518327102       -1.1336936554       -4.4406039264
 C        10.8803514145       -2.4407094213       -2.2985627667
 C         9.7421997347       -3.1207236237       -4.5155872146
 H        -5.5187608620       -4.9985149473        4.6538841470
 H        -5.4473142974       -6.3511161434        5.8365635470
 H        -5.9783177024       -6.6141623913        4.0222678327
 H        -7.9872967295       -2.4254747016        3.4754320264
 H        -6.6485993762       -2.9107526809        2.6702641670
 H        -9.9463638998       -6.9703677215        3.7679277423
 H        -8.4430246477       -7.5813423921        4.4490411315
 H        -8.5876142844       -6.9661895383        2.7822348916
 H        -9.9985127451       -5.2027051259        5.6772851096
 H        -9.2626941449       -3.5791956270        5.3470549305
 H       -10.4651608289       -4.5452057738        4.2029852534
 H        -7.6960240071       -3.5061098441        0.6443587871
 H        -9.4618510476       -3.1563494456        1.2266157741
 H        -9.0424642190        2.0941098610       -0.8934882589
 H        -8.8562991507        1.6555821329        0.7049527181
 H        -7.2479420379       -2.0327901484       -1.4159870503
 H        -8.5560199587       -1.6708370811       -2.4892445568
 H        -8.7924941838       -3.0543009364       -1.5531474387
 H       -10.6323140003       -0.1196474081        0.3624897732
 H       -10.8425975802       -0.1035413486       -1.2753616553
 H       -10.9551491344       -1.7106569114       -0.5417858720
 H        -7.3594835002        3.7317373296       -0.3756930612
 H        -6.4162883342        2.2441206935       -0.8814910003
 H        -3.5316200406        0.6877442910        1.0574227875
 H        -5.1286427212        0.3995124995        0.5374831059
 H        -5.5487027811        4.9754279807        0.1260341621
 H        -3.9785667366        4.9066458901        0.9777228178
 H        -5.4449804651        5.4143614430        1.8605232955
 H        -3.5015218841        3.2788345686        2.9716539422
 H        -5.1708491180        3.2107665934        3.5247825083
 H        -4.3133518223        1.6980796197        2.8789529119
 H        -4.1885261914       -0.6500445014       -1.1488696378
 H        -4.5552825519        0.9283416108       -1.8539424851
 H        -1.2132121331        3.8933325409       -2.8053014551
 H        -0.7084313173        3.2705401823       -1.2808557705
 H        -1.1418550826       -0.7232861474       -3.5641413646
 H        -1.6254997246        0.3849970026       -4.8932701947
 H        -2.9172790227       -0.3726427233       -3.9704643425
 H        -2.7222405352        2.5947244302       -4.4540121064
 H        -4.0915007109        1.7148821212       -3.6626716326
 H        -3.3319035078        3.0529452213       -2.8032049184
 H         0.9894001317        4.9997871110       -2.5291010548
 H         1.5729854664        3.4298411355       -3.0031148403
 H         3.1538862523        1.9086991949        0.8222070953
 H         4.4245026197        2.8247058509       -0.2483183905
 H         4.1435590797        4.2566864782       -1.7554483208
 H         4.6513291744        5.6306624514       -0.6909627285
 H         3.3229609008        5.7933685891       -1.8379422398
 H         1.6123377639        6.6258238532       -0.6722742903
 H         1.1200053734        5.9814307945        0.8849636482
 H         2.5603123788        6.7620752106        0.8315658436
 H         5.9441267307        2.6516952071        1.5323475447
 H         4.7466375377        2.6114829145        2.8245161790
 H         3.5349578755       -2.7693975312        2.2639831320
 H         2.0847252085       -2.6302905524        1.3318502403
 H         5.9926643276       -0.9288849939        3.7837625877
 H         5.6577074795       -1.8574480479        2.3270308470
 H         4.6120077833       -2.0477129713        3.8305849723
 H         2.7314353972       -0.0401570838        4.4064431386
 H         4.4739344707        0.3956496078        4.7603704790
 H         3.4499387208        1.4774756676        3.7523577530
 H         4.0209922140       -3.6953821710       -0.0435462743
 H         4.9255915806       -2.3156964468        0.3613669971
 H         6.3063547446       -0.3204733462       -2.8767730023
 H         6.1571169057       -0.6184126242       -1.0933813084
 H         4.5704227003       -4.6022832851       -1.8979460273
 H         3.9478090519       -4.5586097162       -3.5174281454
 H         2.8371484398       -4.2991093210       -2.0920032598
 H         4.2919821001       -2.6438043858       -4.5817049268
 H         2.8891470942       -2.0459724281       -3.9568599733
 H         4.3981907654       -0.9405708232       -3.8874072947
 H         8.6315150056       -0.3160422740       -1.3459160033
 H         8.3152713251       -2.0576178546       -1.3260412387
 H         9.5843033511        0.1707827755       -5.5999118151
 H        10.0148597972        0.9067324350       -4.1305872440
 H        11.2457711582        0.9008792854       -5.3722518703
 H        10.3184677628       -3.2374550810       -1.6901996779
 H        10.9214740450       -1.5929604714       -1.5504721973
 H        11.8489161394       -2.8522132447       -2.5664363925
 H        10.6056266998       -3.6387904135       -4.8937212208
 H         9.1895772142       -3.9164243993       -3.9661543341
 H         9.2746352740       -2.6543084655       -5.4402191640
 Na        0.8551175385        0.4518311131       -0.6882145030
