155

 C        -6.6777970097       -7.1343527477        4.9473544073
 C        -7.4546257881       -5.8973337071        5.1119798592
 C        -8.5362280765       -5.6190216112        3.9988219610
 C        -7.6797770364       -4.9360956627        2.8776766392
 C        -7.8052168210       -3.3681913363        2.6089374564
 C        -9.1346336518       -6.9538933764        3.3893226302
 C        -9.7087193893       -4.8011159213        4.6287015588
 O        -7.2655814446       -5.0975009988        5.9930461670
 O        -6.9111019017       -5.5845650385        2.1607973674
 C        -8.0117601500       -3.0803000561        1.0701811931
 C        -8.0866336357       -1.5455729933        0.8739330405
 C        -8.5869544105       -1.0275850058       -0.4940230339
 C        -7.9336919537        0.5964193824       -0.7367676799
 C        -8.5358902234        1.6248341311        0.1537280785
 O        -7.7731923812       -0.7869174300        1.7705316426
 O        -6.9144151513        0.7320613016       -1.4033141399
 C        -7.9938466390       -1.8774383250       -1.6366499146
 C       -10.1038295139       -0.8288473952       -0.5234363375
 C        -7.6818961548        2.9083603189        0.2033668435
 C        -6.9345573376        2.8218233521        1.6807067274
 C        -5.3332921226        2.9920867275        1.5779506560
 C        -4.7844970149        2.4183190369        0.1691474245
 C        -4.2993611995        0.9058002663        0.1447750335
 C        -4.9272599534        4.4667428920        1.5061582711
 C        -4.5948359333        2.2270137807        2.7030228371
 O        -7.3903671655        2.5141308982        2.7255139199
 O        -4.4531480903        3.1946377660       -0.6407227786
 C        -3.6733055562        0.4466936721       -1.1441459490
 C        -2.2051521024        0.9083313036       -1.4038755669
 C        -1.7790264519        1.2550052403       -2.8573134127
 C        -0.4191191644        1.9692702101       -2.7974329193
 C        -0.3827975825        3.4705728511       -2.6138725312
 O        -1.4570549263        0.8509083185       -0.4197822521
 O         0.5851313684        1.1854010622       -2.8646561426
 C        -1.6897360701       -0.0747550974       -3.6403865104
 C        -3.0335352726        2.0530717421       -3.4967446019
 C         0.9977680945        3.9147575037       -2.2759219578
 C         1.5198833957        3.5340601782       -0.8296679505
 C         2.4894598343        4.6914588100       -0.2261707908
 C         3.2955596261        4.1554423621        0.9989195105
 C         4.1548789448        2.7925671220        0.8005023113
 C         3.5218441785        5.0225449040       -1.2337798137
 C         1.6255709057        5.8883539044        0.1279994612
 O         1.3614997060        2.4676008197       -0.3077718174
 O         3.4443336192        4.7373042083        2.0563138200
 C         4.6724314411        2.3227151437        2.1180569808
 C         5.1143272752        0.9224921608        2.0830178094
 C         4.0115919166       -0.2825883035        2.8143857846
 C         3.0248324145       -0.6641262585        1.6983521477
 C         2.9730888401       -2.1878735780        1.2415339595
 O         6.0684691689        0.5557692428        1.4965984769
 O         2.3130849957        0.1963667173        1.2673129299
 C         5.0236516564       -1.4435769554        3.0725148760
 C         3.4560050530        0.3036938272        4.1653292064
 C         4.0500501300       -2.5674529992        0.2020181618
 C         3.5061229474       -2.1500251293       -1.2342376421
 C         4.3556335955       -2.8970463053       -2.4210013533
 C         5.8254289560       -2.7673593122       -2.0375102777
 C         6.4091349830       -1.3296452146       -2.2636404102
 C         3.9435700391       -4.4632580099       -2.5593165505
 C         4.0379139802       -2.2399965390       -3.7894131939
 O         2.6079339784       -1.3377305152       -1.4221700758
 O         6.4880064625       -3.8031373879       -1.8299798259
 C         7.8978909276       -1.2179493530       -2.0934729981
 C         8.6630760327       -1.0696444673       -3.4281913454
 C        10.1346122802       -1.5062588184       -3.5481083408
 C        11.2092327864       -0.4977795107       -4.1173206992
 C        10.6125626412        0.8708708872       -4.6627737497
 O         8.0427020252       -0.6219978053       -4.4320842528
 O        12.3809089832       -0.7378241062       -4.1120054120
 C        10.7760988891       -2.0135070708       -2.2428678978
 C         9.9646385838       -2.7177800596       -4.5286413512
 H        -6.1287792292       -7.2418495544        5.9027164836
 H        -7.4491880947       -7.8755458464        4.7437965724
 H        -6.0354141399       -7.0473060745        4.0379232234
 H        -8.6873877415       -2.9266323864        3.0673499483
 H        -6.9720255695       -2.8988196185        3.0860022191
 H        -9.2973022744       -6.8299131555        2.3451441969
 H       -10.1216978571       -7.2418537391        3.7802876819
 H        -8.4327041223       -7.8523939894        3.3886194797
 H       -10.3371117202       -5.6378370621        5.0281504888
 H        -9.4364267742       -4.0679371139        5.3709913417
 H       -10.2050328879       -4.3289019319        3.8099277258
 H        -7.2575171462       -3.5247491954        0.4150353487
 H        -9.0644222179       -3.3657243860        0.7104045859
 H        -9.4393995992        1.8462551107       -0.2518251672
 H        -8.7257956467        1.2332503082        1.1689153493
 H        -6.9103725103       -2.1582488460       -1.6617118645
 H        -8.1538408638       -1.2673535888       -2.5362422099
 H        -8.5769338225       -2.8041485053       -1.6570723185
 H       -10.4717487585       -0.1357844419        0.3124238965
 H       -10.5014885621       -0.6089358289       -1.5630926888
 H       -10.6966652541       -1.7316956985       -0.2145928891
 H        -8.3466798730        3.8163881091        0.1771127176
 H        -6.9211052833        3.0150435008       -0.5811965605
 H        -3.5175655123        0.8887666420        0.9178942401
 H        -5.1219299230        0.2208235336        0.4494912661
 H        -5.2179787448        4.8575272203        0.4920858103
 H        -3.8202811799        4.5001831266        1.5291786589
 H        -5.3400548973        5.0378831539        2.3449140346
 H        -3.5291460688        2.3119819254        2.6884512546
 H        -5.0192202570        2.7278901043        3.5440902793
 H        -4.9633163077        1.1708166871        2.6965016890
 H        -3.4787594294       -0.6232217940       -1.1703693221
 H        -4.3036031968        0.7112350300       -1.9055055572
 H        -0.7711179370        4.0618863912       -3.4516451413
 H        -1.0285939740        3.7130339125       -1.8212841931
 H        -0.8747548431       -0.5979535860       -3.1181611503
 H        -1.4814626980        0.0689000583       -4.6910136716
 H        -2.5588160696       -0.6723837500       -3.5053507742
 H        -2.6968508130        3.0530457626       -3.7658693191
 H        -3.6041861263        1.5344342073       -4.2995533002
 H        -3.7925495817        2.2766855370       -2.7740886152
 H         1.0833937377        4.9946753573       -2.3052953217
 H         1.7081878047        3.4531300923       -2.9483083479
 H         3.5294848558        2.0833032565        0.2587861409
 H         4.9891204313        3.1491797221        0.1126711412
 H         4.1041087755        4.0685918737       -1.4686924196
 H         4.1832400056        5.7911202127       -0.7304592604
 H         3.0252642704        5.4089151125       -2.1018100213
 H         0.9794894852        6.3496973626       -0.6946997390
 H         1.0522190135        5.7508508689        1.0383002455
 H         2.3146403668        6.7664757926        0.3441551879
 H         5.4132345717        2.9463747414        2.4695223900
 H         3.8191744265        2.3578600281        2.8693870213
 H         3.2877099917       -2.7569392367        2.1176393435
 H         1.9509822323       -2.5228102407        1.0501838879
 H         5.7155979022       -1.1182903199        3.7984463369
 H         5.5522994365       -1.8385833331        2.2102201611
 H         4.4692402910       -2.2298138230        3.5651937944
 H         2.7963721570       -0.3975950950        4.6881983627
 H         4.2768631487        0.5951841599        4.8308111692
 H         2.8722364087        1.1696486482        4.0501306160
 H         4.1283771907       -3.6491573718        0.2441516795
 H         5.0699738416       -2.2839464295        0.4505389925
 H         6.1330257777       -1.0818757204       -3.3217583047
 H         5.8743279355       -0.5340726477       -1.6763007917
 H         3.8725315778       -5.0562328357       -1.6521544328
 H         4.7536205077       -4.9596394202       -3.0984815467
 H         2.9941582254       -4.6299738065       -3.1634872531
 H         4.6538448071       -2.7093269860       -4.5293125709
 H         3.0231131412       -2.6417886652       -3.9793247119
 H         3.8812001894       -1.0758631738       -3.8718849323
 H         8.1408913285       -0.3008792667       -1.5436742998
 H         8.3399320909       -2.0218861173       -1.5062509544
 H         9.9202806187        0.7793683241       -5.4669348111
 H         9.9342260174        1.3520191267       -3.9400680750
 H        11.3790795932        1.6065474251       -4.9091276869
 H        10.5656194006       -3.0694235596       -2.2315868625
 H        10.3386163035       -1.5643221813       -1.3534253788
 H        11.7720862557       -1.7712071630       -2.1528760568
 H        10.8331446426       -3.3245926463       -4.6392632972
 H         9.1813485705       -3.3737305993       -4.2172030772
 H         9.7359844955       -2.2847908984       -5.4946869776
 Na        1.1038830581        0.2589667295       -0.6123216714
