155

 C        -7.8450265514       -6.0893265523        5.3020737562
 C        -7.7911134336       -6.4676947370        3.8353804953
 C        -8.8936279631       -6.0323613846        2.7964175261
 C        -8.1921486223       -5.4218854656        1.5744410964
 C        -7.6463139756       -3.9290907371        1.6786062931
 C        -9.5079506672       -7.4090660406        2.3333016092
 C        -9.9314267646       -5.0501510443        3.2709612911
 O        -6.9480469544       -7.2350536847        3.4201418215
 O        -7.7562029178       -6.1267549757        0.6583979761
 C        -7.1271795601       -3.4854657593        0.3316685767
 C        -7.0166033479       -1.9328600568        0.4087077146
 C        -7.9335454137       -1.1142901703       -0.6637044793
 C        -7.6828098519        0.2717351212       -0.5472483617
 C        -8.3042246912        1.1653044124        0.6037539797
 O        -6.3861532172       -1.2224950035        1.1418925291
 O        -6.7454965514        0.8346495581       -1.1588677176
 C        -7.6833948119       -1.5850935036       -2.1441298401
 C        -9.4246069516       -1.4911532209       -0.2573914896
 C        -7.2858614330        2.3139789317        0.9544214747
 C        -6.3254818883        1.9401655180        2.0881971978
 C        -4.9403582011        2.7183898502        2.1206553954
 C        -4.1414428726        2.2401629197        0.8186811050
 C        -4.2084263907        0.7058571683        0.6339156347
 C        -5.2001390153        4.2140888135        2.1178481075
 C        -4.2782922173        2.3556705276        3.4789663461
 O        -6.5666635818        1.1154709905        2.9924564010
 O        -3.7032479413        3.0954281992        0.0881127915
 C        -3.6815666632        0.1274172424       -0.7093338956
 C        -2.2691796263        0.6352095904       -1.1176329880
 C        -1.9697329573        1.0473374202       -2.6273026783
 C        -0.4991980390        1.7322462763       -2.5225042692
 C        -0.2515443861        3.1350322284       -2.1252349912
 O        -1.4175245976        0.8307913440       -0.2036764688
 O         0.4393183424        0.9818940543       -2.7767363522
 C        -1.8455569681       -0.0899351792       -3.5885543634
 C        -3.0174160852        2.0361343167       -3.1363288412
 C         1.1832563716        3.5707462961       -2.2636476151
 C         1.9788556800        3.5014111741       -0.9138948467
 C         2.8244978907        4.7553908236       -0.5661045941
 C         3.4728107535        4.5608539042        0.8796685252
 C         4.3472639039        3.3141038690        1.1993120051
 C         4.0776151813        5.1648706848       -1.4577366269
 C         1.8404444787        6.0767759292       -0.4148337547
 O         1.7962810032        2.6250981677       -0.1134683266
 O         3.3525789452        5.4259640987        1.7221401818
 C         3.6479532931        2.4228830998        2.3224828602
 C         4.2558985691        1.0224944708        2.5711543275
 C         3.4962640741       -0.2412388527        3.1321038028
 C         2.5982482685       -0.7317823579        1.9901378793
 C         2.8433848496       -2.1057826448        1.3633787878
 O         5.4105858555        0.7733913164        2.1857521874
 O         1.7633314126       -0.0364726351        1.5148058561
 C         4.6079095073       -1.2294112102        3.4979990636
 C         2.7900397131        0.1320324220        4.3989322766
 C         3.9427758424       -2.0546950592        0.2305435587
 C         3.4778279101       -1.7803758364       -1.1891313604
 C         4.1522495693       -2.5971881351       -2.3679631543
 C         5.7254365258       -2.7257143355       -2.0706356165
 C         6.7099087173       -2.4145746514       -3.2447167600
 C         3.5247189502       -4.0803256022       -2.2399342782
 C         3.5754483545       -2.0050530300       -3.6596159470
 O         2.6107971787       -1.0409668836       -1.5366079621
 O         6.0621874210       -3.3128854069       -1.0860608222
 C         8.1687429561       -2.2435892183       -2.9263688876
 C         8.7407397832       -0.9508568580       -3.6788134591
 C        10.2634239655       -0.5395243361       -3.3581321259
 C        10.4705341114        1.0178202688       -3.2229204049
 C         9.8672639039        1.9258446158       -4.2855064060
 O         8.0005163781       -0.2441763343       -4.3665205351
 O        11.1620264685        1.4654636267       -2.3025499624
 C        10.7451770765       -1.3115636525       -2.1623337500
 C        11.1387688112       -1.0283707501       -4.5485817686
 H        -8.6753330055       -5.4289777503        5.5828855275
 H        -8.0763387379       -7.0488620224        5.7347877282
 H        -6.9165450537       -5.6685388593        5.6649108970
 H        -8.4659810869       -3.3140973510        2.0243527238
 H        -6.9539563777       -3.8371730906        2.4525569289
 H       -10.5551513175       -7.4507052282        2.3049991226
 H        -9.1415326845       -8.1878316951        2.9836419430
 H        -9.1796119112       -7.6341530823        1.2788239547
 H       -10.6227191759       -5.5668924961        3.9676482614
 H        -9.5734496999       -4.1447235260        3.6855818428
 H       -10.4891916230       -4.7704604624        2.4122923407
 H        -6.1460183430       -3.8574271244        0.0172150202
 H        -7.8551502896       -3.7096466428       -0.4512621978
 H        -9.2286448680        1.4925872538        0.2302931884
 H        -8.5025458811        0.4805745982        1.3962451315
 H        -6.9348301033       -0.9644821509       -2.6818142533
 H        -8.5425855929       -1.3631562624       -2.7346460574
 H        -7.4371316073       -2.6227022337       -2.3222709274
 H        -9.4448030515       -1.0189385019        0.7037044575
 H       -10.1337872186       -1.0819562037       -0.9045316802
 H        -9.5426172097       -2.5275173835       -0.0872367302
 H        -7.7671424613        3.3040540057        1.2831602426
 H        -6.6847383439        2.5659279263        0.0795979379
 H        -3.8086876705        0.1555316851        1.5619149153
 H        -5.2749933941        0.4711283378        0.6015064661
 H        -5.7241784255        4.3772529056        1.1359440601
 H        -4.3052595109        4.8222920756        2.0879714129
 H        -5.8425543779        4.5463383279        2.9191893914
 H        -3.4089926285        3.0053658376        3.6322976190
 H        -5.0109864115        2.6162488469        4.2130764278
 H        -4.0233222512        1.2392756202        3.4968530235
 H        -3.7762754888       -0.9129208812       -0.6565639780
 H        -4.3761695119        0.4005773596       -1.4706214740
 H        -0.8117454840        3.8079663682       -2.7536706354
 H        -0.6768595983        3.0506290545       -1.1095289982
 H        -1.1849710116       -0.8783282735       -3.1552150229
 H        -1.4292528265        0.1618132719       -4.5899087108
 H        -2.8234984043       -0.5343001567       -3.6852217279
 H        -2.6624104382        2.4227392629       -4.0559071740
 H        -3.9817286096        1.5219754306       -3.2484334341
 H        -3.2854078591        2.8705462203       -2.5537475481
 H         1.1990031864        4.6177470252       -2.5629437306
 H         1.7739965812        3.0459747581       -3.0415105192
 H         4.2429308302        2.5384651162        0.3807510027
 H         5.4079926018        3.5646771435        1.4017471812
 H         4.9226818932        4.4049642139       -1.2741982932
 H         4.4318455391        6.1272730036       -1.1090054358
 H         3.8134402041        5.1532769441       -2.4987352708
 H         1.3563070648        6.3782457393       -1.4208573278
 H         1.0760341982        5.7743515812        0.2605096687
 H         2.3716857011        6.9384396621        0.0222824784
 H         3.5305573312        3.0222987125        3.2067781440
 H         2.5645068167        2.3222465559        2.1018438366
 H         3.3718862761       -2.6824586592        2.1393943011
 H         1.8892155948       -2.6208595949        1.0629277625
 H         5.2701646626       -0.6490543190        4.1504233510
 H         5.1688511618       -1.7339772237        2.6910645816
 H         4.1279905679       -2.0143073318        4.1427735700
 H         2.5380063935       -0.7022299975        5.0921089820
 H         3.4390952760        0.7922383488        4.9890264746
 H         1.8810844779        0.6543619959        4.2893311971
 H         4.3119965939       -3.1015006484        0.0707151557
 H         4.7029563698       -1.4253133888        0.5576736196
 H         6.5428180423       -3.2046551751       -3.9799342639
 H         6.4432963512       -1.5101869255       -3.7711172463
 H         4.0056862746       -4.5532997486       -1.4355623513
 H         3.6951810388       -4.7157703199       -3.0834404569
 H         2.4726025174       -4.0414347700       -1.9275806270
 H         3.4760636230       -2.7932227012       -4.4060684932
 H         2.5256308940       -1.6490454215       -3.5770072239
 H         4.1457000300       -1.1481636163       -4.2014115543
 H         8.3672322058       -2.2193229006       -1.8511618882
 H         8.7725705387       -2.9991743777       -3.4310049830
 H        10.2895781164        1.8389058147       -5.2784380786
 H         8.7767683340        1.9291413269       -4.3555243443
 H        10.0964399324        2.9745306725       -3.9990514271
 H        10.9011278722       -2.3783737730       -2.4287346030
 H        10.0042853170       -1.3408577665       -1.3598027430
 H        11.6123326482       -0.8294473891       -1.7771406434
 H        12.2348852256       -1.0263964496       -4.4002001513
 H        10.8865157325       -2.0381680407       -4.8393703476
 H        11.0658495644       -0.2658260314       -5.3323739835
 Na        1.0715309794        0.6346347357       -0.6051150520
