155

 C        -7.4208694410       -5.4285410310        4.3547600879
 C        -7.8328731683       -6.4821514978        3.4116769880
 C        -9.0650477195       -6.3441566353        2.3159394351
 C        -8.3659295454       -5.8382795206        1.0286732680
 C        -7.4809840505       -4.5940627646        1.1469738730
 C        -9.7539289045       -7.6885510215        2.1203866219
 C       -10.1432055449       -5.2760597052        2.7058963797
 O        -7.2530539326       -7.5798232209        3.4936620721
 O        -8.6168012063       -6.1823637091       -0.1064076316
 C        -7.1849850478       -3.8500921806       -0.2234207850
 C        -6.9506393412       -2.3914996442       -0.0599260311
 C        -7.8874506748       -1.4077352928       -0.8246918242
 C        -7.4180874094        0.0889957688       -0.4196145329
 C        -7.7561758921        0.6975126121        1.0085819877
 O        -5.9507352173       -2.0532395140        0.6319269552
 O        -6.8555644562        0.7272437737       -1.2334641341
 C        -7.6575725585       -1.5126566555       -2.3374679740
 C        -9.3097225845       -1.6911953112       -0.3219937441
 C        -6.8938687366        2.0360141637        1.1147399626
 C        -5.9068596925        1.8411864977        2.3184054532
 C        -4.5613925367        2.6975181094        2.3813455063
 C        -3.5602545547        1.9970479794        1.3146617403
 C        -3.6956003733        0.4912964341        0.9588365593
 C        -4.8329556810        4.0770321515        1.8455568481
 C        -4.2516960952        2.7148827276        3.9087699966
 O        -6.1546359735        1.0380004885        3.1380288991
 O        -2.8162021587        2.7091095955        0.6257978669
 C        -3.4847826342        0.1510157628       -0.4856310764
 C        -2.1809931447        0.5586875231       -1.1011797207
 C        -2.0703285282        1.3013797871       -2.5242008355
 C        -0.6491288680        1.9512165776       -2.5843582845
 C        -0.3676820840        3.4969926874       -2.3952301475
 O        -1.2218814995        0.1816032846       -0.4731181885
 O         0.2722818159        1.1472179895       -2.5529751118
 C        -2.2236086377        0.3858600072       -3.7320194632
 C        -3.2142929771        2.4316264154       -2.5146102760
 C         1.1218709550        3.8009972907       -2.3699570835
 C         1.8441714512        3.6681669619       -0.9944507455
 C         2.9099066705        4.6487097581       -0.5324005661
 C         3.2629908685        4.3469871468        1.0244063463
 C         4.3250559242        3.3414490120        1.3992538221
 C         4.1688117202        4.5293339315       -1.4181447810
 C         2.2923627527        6.1009488682       -0.6630939268
 O         1.7218561117        2.6823128768       -0.3526649880
 O         2.5515322190        4.8608436088        1.8700934629
 C         3.9724982999        2.5078283774        2.6161238886
 C         4.2406521726        1.0180573686        2.4097911966
 C         3.4302601780       -0.0567170688        3.2698983614
 C         2.4001899619       -0.6122546059        2.3230306219
 C         2.6813280987       -1.9190873273        1.5179717714
 O         5.1148842001        0.6948282877        1.6636090851
 O         1.3890410843        0.0773118141        1.9820696847
 C         4.4320291783       -1.0825384543        3.8444121585
 C         2.6748338937        0.7137951225        4.3821964706
 C         3.8902492432       -1.9873782260        0.5663092469
 C         3.5677288176       -1.6779002638       -1.0835315401
 C         4.2534675947       -2.5302152354       -2.2511839554
 C         5.8921514429       -2.3228274117       -2.1219427354
 C         6.6741264427       -2.3618762868       -3.3521106425
 C         3.9800370898       -4.0886656500       -2.0663079671
 C         3.7273174798       -2.0305059535       -3.6809382282
 O         2.9180641911       -0.6721547985       -1.4073689668
 O         6.3596574300       -2.4229193556       -0.9993379426
 C         8.1227935351       -2.1146269719       -3.0424815061
 C         8.5715058485       -0.8016479283       -3.6401617133
 C        10.1070920158       -0.2798776645       -3.3138205859
 C         9.7862537575        1.2151789846       -2.8698549594
 C        10.1092842637        2.3802993304       -3.8682995966
 O         7.8710125371       -0.0644079949       -4.2928816451
 O         9.2830875539        1.4331284643       -1.7510472729
 C        10.7402733147       -0.9598200343       -2.1208218021
 C        11.0512449241       -0.2849099473       -4.4987321424
 H        -6.5303735720       -4.9957808669        3.8594139135
 H        -8.1455295107       -4.6663179844        4.6259394136
 H        -7.1281693917       -5.8281340836        5.3100269338
 H        -7.8796310102       -3.8890295114        1.8485922463
 H        -6.5331882769       -4.9408742867        1.6179528634
 H        -9.8347646629       -7.9004467976        1.0197846184
 H       -10.7588521217       -7.7357173506        2.4843275722
 H        -9.1995404897       -8.4374470044        2.6006523191
 H       -10.6324776453       -5.6381912808        3.5303770145
 H        -9.6681369027       -4.4162119351        3.1025005595
 H       -10.9126124156       -5.0040691534        1.9304509665
 H        -6.2657099753       -4.3152748137       -0.6786994867
 H        -7.9774980079       -3.9950720114       -0.9852635298
 H        -8.8759542861        0.7315620731        0.9718200149
 H        -7.5224140782       -0.0245464077        1.7270800195
 H        -6.9465052680       -2.2493524681       -2.6682206422
 H        -7.5044240556       -0.5975080334       -2.8526626685
 H        -8.5616712287       -2.0252238920       -2.8039390908
 H        -9.5710328690       -1.2788660202        0.6783872472
 H        -9.9083374094       -1.2276996340       -1.0871549802
 H        -9.4179899169       -2.7532970306       -0.3635530997
 H        -7.5791005317        2.8012472190        1.3521405802
 H        -6.4537458301        2.2496502017        0.1189745184
 H        -2.8537573469        0.0053798065        1.3638159568
 H        -4.5727384322        0.0433073102        1.4374808836
 H        -5.5456921427        4.1489295292        1.0419936218
 H        -3.9689257008        4.4918624491        1.3325524966
 H        -5.1917370230        4.7458857839        2.6123993556
 H        -3.3311987660        3.3403429419        4.0044541641
 H        -5.1374859017        3.2320817283        4.3122279681
 H        -4.2542720825        1.7713095646        4.4032806337
 H        -3.5131875216       -0.9347426294       -0.6546105825
 H        -4.3396914515        0.4630614974       -1.1168814133
 H        -0.7415817871        3.9289701661       -3.2993301813
 H        -0.8514951216        3.7989362173       -1.5040108557
 H        -1.6884558706       -0.5335348150       -3.6329577573
 H        -1.8778044665        0.9536384540       -4.5978186788
 H        -3.2469195291        0.0844254318       -4.0234450541
 H        -3.2497423942        3.1216308046       -3.3481008116
 H        -4.1935636818        1.9756878006       -2.5831653688
 H        -3.0589347112        3.0494073138       -1.6169467165
 H         1.4896697075        4.6570493981       -2.8997977790
 H         1.5832676441        3.0614296406       -2.9746280737
 H         4.6262924041        2.6894092974        0.5944291613
 H         5.2600337045        3.8526756581        1.6841424764
 H         4.5142954430        3.5077315632       -1.7033027595
 H         5.0288391117        5.1493089226       -0.8950734136
 H         4.0411645567        5.1495336453       -2.3282179642
 H         1.6915004940        6.0623309276       -1.5595125864
 H         1.5727388845        6.2013002023        0.1768582454
 H         3.0566544785        6.9705850059       -0.7118469973
 H         4.3862079558        2.8378542927        3.6226384016
 H         2.9431209184        2.7489724281        2.9370374327
 H         2.7890615440       -2.8391549180        2.1066639733
 H         1.7949673900       -2.1670809195        0.9340775033
 H         5.3125439787       -0.7013352146        4.4296145853
 H         4.8277636100       -1.6002928390        2.9812737905
 H         3.9347618790       -1.7754556845        4.5235374952
 H         2.5552469226        0.0417638769        5.2092249931
 H         3.1807201888        1.5769462352        4.7469494604
 H         1.6830282882        1.1091123364        4.1358931432
 H         4.2255653573       -2.9812394216        0.6047303113
 H         4.6648374427       -1.2201271183        0.7296960439
 H         6.4751365845       -3.3328963863       -3.8346701679
 H         6.2186704286       -1.6615607200       -4.0969789115
 H         4.7435428406       -4.7593303618       -1.6595464184
 H         3.8392186069       -4.5199435430       -3.0395392013
 H         3.0352205137       -4.1769525950       -1.6431016190
 H         3.9390673287       -2.7765628016       -4.3619777518
 H         2.6555358941       -1.7362059116       -3.7527578836
 H         4.1721482089       -1.0461191353       -3.9958289377
 H         8.1864993486       -1.9441793294       -1.9741287072
 H         8.6665880290       -2.9774224508       -3.3936999406
 H        11.1997834214        2.4894220665       -4.0960042279
 H         9.6636465638        2.3201101416       -4.8615557487
 H         9.8376861833        3.2860446692       -3.3778545699
 H        10.9260229928       -2.0246373668       -2.2694316252
 H        10.1140527449       -0.8226743546       -1.2741018098
 H        11.6770404113       -0.5495873145       -1.8266397354
 H        12.0357953822       -0.3154912468       -4.1978275094
 H        10.8560867940       -1.2305573051       -5.0387735607
 H        10.7985865436        0.3987982022       -5.2754169561
 Na        1.0948858193        0.4171258475       -0.5161841917
