155

 C        -8.0028587152       -5.8560022810        3.9241983042
 C        -8.0679708800       -6.5608146353        2.5502233448
 C        -9.3149832621       -6.6017596711        1.6126257119
 C        -8.9126209326       -5.8273433457        0.3044582383
 C        -7.9055038701       -4.7405410039        0.2802761368
 C        -9.6646692880       -8.1539978970        1.2856855893
 C       -10.6307712555       -6.0326721647        2.2099520521
 O        -6.9928044055       -7.0342652501        2.2322948877
 O        -9.5646608835       -6.0545994395       -0.7218804448
 C        -7.4823446591       -4.2417153955       -1.1675535098
 C        -6.7733784585       -2.8662507127       -0.9822975194
 C        -7.6959490275       -1.5620823733       -1.0585183199
 C        -6.9765415462       -0.3249691325       -0.5724421151
 C        -7.0537226864        0.1215292690        0.8842380952
 O        -5.5966899521       -2.8557449885       -1.0054073551
 O        -6.3278992079        0.2903221356       -1.3977681330
 C        -7.9758599854       -1.3444376576       -2.6176284325
 C        -9.0100090164       -1.7761176138       -0.3450708444
 C        -6.2796901805        1.4531008801        1.1276269425
 C        -5.5460898264        1.3532084478        2.5098597253
 C        -4.2389167414        2.1625328019        2.8345653423
 C        -3.0446929717        1.6737153713        1.8174142496
 C        -3.1294263105        0.2089121410        1.4448777662
 C        -4.3313430980        3.6985564564        2.6728617548
 C        -3.6482743104        1.7712081178        4.2040218528
 O        -5.9122502793        0.4871743277        3.2596026977
 O        -2.1713186831        2.3368615010        1.3959967536
 C        -3.3998307671        0.0013784786       -0.0654248875
 C        -2.0837004520        0.3941522125       -0.7292432893
 C        -2.1503421372        1.1513136649       -2.0277189105
 C        -0.7071307535        1.9132900627       -2.3276159642
 C        -0.3918682923        3.1599788873       -1.5981710400
 O        -1.0488316762        0.0122501775       -0.2482186076
 O         0.1673387926        1.3228855831       -2.9935746100
 C        -2.3931131328        0.2860486930       -3.2885611342
 C        -3.2205431169        2.2498426341       -2.2030535842
 C         0.8372156869        3.9421573051       -2.0525696381
 C         2.0004677769        3.6292408769       -0.9866836079
 C         2.9603601412        4.6808630836       -0.5926427217
 C         3.3366031350        4.5154452358        0.8597449191
 C         4.1372494659        3.3436581485        1.2162940863
 C         4.1888794384        4.7348458106       -1.5940014045
 C         2.3556844462        6.1035474740       -0.7055330290
 O         2.0984597581        2.5165211354       -0.5088171193
 O         3.1646994356        5.3597880201        1.7154836204
 C         3.5070746467        2.5609995724        2.4535565968
 C         4.3005904674        1.3041013368        2.8553042709
 C         3.3650201083        0.0414870694        3.3239707518
 C         2.5013394592       -0.3266819117        2.0934386503
 C         2.7223578193       -1.6615258743        1.4167031538
 O         5.4643785660        1.1269697409        2.8085461613
 O         1.5551213090        0.3547932824        1.6927197697
 C         4.3861102447       -1.2163394957        3.5531162960
 C         2.5089028631        0.3576934017        4.5628077367
 C         3.8498988802       -1.6233265951        0.3496168267
 C         3.3316264442       -1.8608108633       -1.1205562067
 C         4.3826488485       -2.5828684320       -2.0584162405
 C         5.7206135345       -1.7276941506       -1.9364165984
 C         7.0051432452       -2.1959250975       -2.7651485805
 C         4.6189952030       -4.0066134015       -1.4811519929
 C         3.6719846450       -2.6267287113       -3.4507530079
 O         2.2744113349       -1.5044548815       -1.5719933918
 O         5.8399072416       -0.7012696784       -1.2705341802
 C         8.1912938766       -1.3933087910       -2.3536002883
 C         8.5818645128       -0.2572601647       -3.3519810405
 C         9.5801089172        0.7970088324       -2.9512563968
 C         8.8619913480        1.9599377349       -2.2457341597
 C         9.7398985375        2.9577521220       -1.4845106996
 O         8.0781524960       -0.3093777816       -4.4629030165
 O         7.6969476702        2.1749261265       -2.2774850844
 C        10.8336673762        0.2084683911       -2.1909980213
 C        10.1043643202        1.3084701103       -4.2941490814
 H        -7.0375947348       -5.5231167351        4.3227079082
 H        -8.5997054287       -4.9723417998        4.0069038905
 H        -8.3461067918       -6.5438306829        4.6918116684
 H        -8.2682563551       -3.9000742036        0.9332396100
 H        -6.8967090536       -4.9559649901        0.7342057807
 H       -10.5353680839       -8.2876321771        0.7025192650
 H        -9.7685611361       -8.6696997360        2.2387956492
 H        -8.7475685261       -8.6266776360        0.8045668878
 H       -10.8390895663       -6.6285750933        3.1991909950
 H       -10.5423028544       -5.0213467956        2.6751131211
 H       -11.4486970493       -6.0259949356        1.5406856903
 H        -6.7995261379       -5.0271728581       -1.5240724700
 H        -8.3765244571       -4.1781688003       -1.7753670526
 H        -8.0815696592        0.4152885328        1.0383592718
 H        -6.8404043592       -0.5823520324        1.6186589492
 H        -7.0250498022       -0.9342160871       -3.0396450210
 H        -8.7254140935       -0.5559741165       -2.8890685222
 H        -8.1381055890       -2.2663331808       -3.1592946591
 H        -8.8278958613       -2.0248004773        0.7274754295
 H        -9.6067046049       -0.8140727527       -0.4255474201
 H        -9.4870135161       -2.7634046685       -0.6042691242
 H        -6.8472517908        2.3597114756        1.2375998308
 H        -5.5549390685        1.5764540936        0.2732703131
 H        -2.1362726894       -0.2679959449        1.7707534015
 H        -3.9589448197       -0.2789008757        1.9725241080
 H        -4.1446917824        4.0189974023        1.6265659442
 H        -3.5311350764        4.2352980524        3.1531778080
 H        -5.2758518776        4.1471907754        2.9571369776
 H        -2.7136875357        2.2949486681        4.2912302725
 H        -4.2964953989        2.0882940059        4.9746903270
 H        -3.4096653670        0.6608091146        4.1960343397
 H        -3.5575949896       -1.0582484247       -0.1481413163
 H        -4.2220722275        0.5380583535       -0.5296600811
 H        -1.2554290385        3.8713304382       -1.5769557816
 H        -0.2986861604        3.0508952669       -0.4723202986
 H        -1.4050706218       -0.0770111857       -3.6202335678
 H        -2.8650952471        0.7761687948       -4.1351495998
 H        -2.9766390504       -0.5652452467       -3.0244541543
 H        -2.9823089735        2.7391294976       -3.1435392249
 H        -4.2322697997        1.7521739735       -2.2293533564
 H        -3.1368496415        2.9027415928       -1.3333670921
 H         0.6966808681        5.0387967794       -2.1447812866
 H         1.1411180978        3.5214995606       -3.0430641051
 H         4.4753770383        2.5363524864        0.5144607976
 H         5.0365781134        3.7746910483        1.6562247700
 H         4.9010677716        3.9706804191       -1.5064059301
 H         4.7424080170        5.5868275088       -1.4899101879
 H         3.8437694374        4.7504843280       -2.6311438376
 H         2.6057000346        6.4842127073       -1.7048058046
 H         1.2913610090        6.0846849221       -0.5936996543
 H         2.8399786542        6.6283214883        0.0237907643
 H         3.5765780449        3.2623187296        3.2917122587
 H         2.5090716079        2.2885504345        2.2217673575
 H         2.8371717090       -2.5419951505        2.0571578070
 H         1.8341508235       -1.7337936713        0.7720168134
 H         4.9100248973       -1.0849623241        4.4784252966
 H         5.1087843739       -1.3147245422        2.7677970405
 H         3.8978522313       -2.1672338463        3.7267295941
 H         1.5177398119       -0.1214861763        4.4919413105
 H         3.0667141955        0.0048790802        5.4251531995
 H         2.4900233377        1.4033702311        4.6109678446
 H         4.6830226000       -2.3549614849        0.3770475507
 H         4.4522424864       -0.7034719790        0.4515725805
 H         7.2519937845       -3.2153159710       -2.4035565220
 H         6.9111948494       -2.3046480691       -3.8713627141
 H         4.9451017747       -4.0510478539       -0.4653331397
 H         5.4298703348       -4.4013249832       -2.0803942583
 H         3.7061728317       -4.6184608678       -1.6616980416
 H         3.8376281986       -3.6593814984       -3.8844397786
 H         2.6467521518       -2.4013659611       -3.2506349223
 H         4.0414959547       -1.8364736378       -4.0544575851
 H         8.2280508865       -1.0918097757       -1.2924886268
 H         9.0725078409       -2.0734146890       -2.3602663662
 H        10.5272672626        2.4502596206       -0.9464025144
 H        10.1477412002        3.5872686689       -2.2603468470
 H         9.1994392066        3.6792662330       -0.8541548912
 H        11.1848015266       -0.6540160225       -2.7831528768
 H        10.7843422573       -0.0604790456       -1.1457969219
 H        11.6210629329        0.9142678766       -2.1771094560
 H        10.7701987543        2.1467152278       -4.0817832113
 H        10.6568822358        0.6014943307       -4.7764560496
 H         9.3197044521        1.6272715380       -4.9310438969
 Na        1.2115623772        0.3881216718       -0.6828293218
