155

 C        -8.2753569839       -6.2855554460        3.8844451422
 C        -8.0122102843       -6.5444928745        2.3751513520
 C        -9.2963310314       -6.5731499247        1.4275304471
 C        -9.0239748798       -5.8487754128        0.1633864724
 C        -7.9002904978       -4.8654589272        0.0584239323
 C        -9.3217044762       -8.0370350189        1.0932356115
 C       -10.6343637586       -5.8756189055        2.1444590325
 O        -6.8771727700       -6.8438771658        2.0685213294
 O        -9.6434302340       -6.0944976968       -0.8249516093
 C        -7.5817905106       -4.1647300087       -1.2941575620
 C        -6.9716933174       -2.7341351052       -0.9812241183
 C        -7.7602729162       -1.4086473245       -1.2325264398
 C        -6.9327659194       -0.2528425270       -0.6474698313
 C        -7.1741914908        0.1991843289        0.8294902470
 O        -5.7245913947       -2.7524393205       -0.8008957538
 O        -6.0475482296        0.2182390348       -1.3196742398
 C        -8.1749200995       -1.3101064920       -2.6838638450
 C        -9.1678709533       -1.6973394030       -0.4385027238
 C        -6.4430735316        1.5229245416        1.3070026111
 C        -5.5832465739        1.2816243857        2.6027121495
 C        -4.2692140316        2.0399493345        2.9693896495
 C        -3.2272054016        1.4865531667        1.9187532563
 C        -3.1082024677       -0.0091190925        1.4914115676
 C        -4.3298903748        3.5282969810        2.9671393961
 C        -3.9584099810        1.6123416620        4.4510614020
 O        -5.7660720822        0.3035366085        3.3018199373
 O        -2.5378795375        2.2935956674        1.2450238812
 C        -3.2054368027       -0.2307687923       -0.0092862483
 C        -1.9746011389        0.1572283071       -0.7560361017
 C        -2.0325210687        0.8971397379       -2.1385860808
 C        -0.7474035512        1.7871561322       -2.4422272511
 C        -0.5282422229        3.0622658456       -1.5760477586
 O        -0.9150345153       -0.2265490109       -0.2168967944
 O         0.1495969921        1.5079840270       -3.2021761081
 C        -2.1817194765       -0.0517884801       -3.2545685707
 C        -3.2319076732        1.9424150030       -1.8609832876
 C         0.8362421856        3.8498556080       -1.9120616916
 C         1.9792379903        3.6790420531       -0.9500161505
 C         3.0472565293        4.8709505707       -0.6177140791
 C         3.5277462871        4.6190987230        0.8783626130
 C         4.3138651069        3.3708187391        1.2129726073
 C         4.2483840425        4.7081825058       -1.5387082652
 C         2.3379192418        6.2214727537       -0.7429234854
 O         2.3869338191        2.5640418506       -0.6680868144
 O         3.4924975916        5.4322939694        1.7982267385
 C         3.4841562291        2.5778274807        2.3018361774
 C         4.1824861598        1.2657737546        2.8459447914
 C         3.3705088985       -0.0795593305        3.2997504372
 C         2.4696826402       -0.4314332427        2.1258327783
 C         2.5226140011       -1.7539299431        1.4325889518
 O         5.3795079459        1.3191511216        3.2016377539
 O         1.8252349044        0.4322681176        1.5492674412
 C         4.3962511021       -1.0916791247        3.7914210606
 C         2.3489427864        0.3109047118        4.4512854793
 C         3.7702288595       -1.5432398474        0.4963874218
 C         3.4202334827       -1.8000021392       -1.1163037276
 C         4.4977534621       -2.5506788782       -1.9860391294
 C         5.7998134256       -1.6266831425       -2.0369250270
 C         7.0308347610       -2.2536722576       -2.5795948390
 C         4.6536928743       -4.0339801414       -1.3595004507
 C         4.1826343111       -2.6507102222       -3.5666729988
 O         2.3597051974       -1.4488137879       -1.6152779713
 O         5.6568196464       -0.5124078869       -1.6329517802
 C         8.3303514430       -1.3731708583       -2.3765610073
 C         8.5747505555       -0.2855823609       -3.4096244566
 C         9.5173429972        1.0684206801       -3.0363742959
 C         8.7803144089        2.1161878237       -2.1294865292
 C         9.6057368165        2.9525599719       -1.1997731081
 O         8.2068143928       -0.4725782200       -4.5400093536
 O         7.5893722307        2.3399245072       -2.2550265721
 C        10.6450259759        0.4496348400       -2.2305020548
 C         9.9164068341        1.9010947485       -4.2265735574
 H        -7.3505567298       -6.2677074920        4.4593982578
 H        -8.7539414423       -5.3069946745        4.1072876353
 H        -8.8593031910       -7.0392220874        4.4133380880
 H        -8.2118656375       -4.0706085196        0.6760196781
 H        -6.9814023582       -5.0442930963        0.5191768148
 H       -10.0912232095       -8.2910413054        0.2910425085
 H        -9.4987423938       -8.6255516130        1.9997895508
 H        -8.3492803876       -8.2827300037        0.8022769601
 H       -11.0669663974       -6.4461832845        2.8819146177
 H       -10.3896409396       -5.0140242704        2.7430035701
 H       -11.4237357598       -5.6224280740        1.3534667133
 H        -6.7563889004       -4.7141866717       -1.7458919769
 H        -8.4922411892       -4.1869244360       -1.9021233243
 H        -8.2632872087        0.3976450712        1.0027458793
 H        -6.9985137957       -0.6582970867        1.5310484705
 H        -7.7304216847       -2.1266229431       -3.2650898609
 H        -7.8123929964       -0.4288163499       -3.1116624930
 H        -9.2498904957       -1.4661347850       -2.8846055065
 H        -8.9721383053       -2.0025457987        0.5714424691
 H        -9.8660342023       -0.9246405937       -0.4514163162
 H        -9.5680112553       -2.5925438752       -0.7996767148
 H        -7.1535156511        2.3230074963        1.7013851490
 H        -5.8705829879        1.8878966012        0.4730236484
 H        -2.1314266972       -0.2895417253        1.7935569015
 H        -3.8396494111       -0.6552818895        2.0143945986
 H        -4.6148554843        3.9766880685        2.0413282059
 H        -3.3284777032        3.9528190270        2.9048516805
 H        -4.9816478537        3.9514348520        3.7371574411
 H        -3.0476177463        2.1595499446        4.7960969867
 H        -4.8332987750        1.8597350474        5.1183892860
 H        -3.8176205495        0.5588216868        4.4709798843
 H        -3.3606941030       -1.3325807095       -0.0890512708
 H        -4.0589518188        0.1565753040       -0.5883635121
 H        -1.2833807092        3.8032192774       -1.4487713837
 H        -0.4777829969        2.7392242309       -0.5743641472
 H        -1.2155639808       -0.4868751348       -3.4651662704
 H        -2.5312547347        0.5166825390       -4.1171733682
 H        -2.8562313121       -0.9131137507       -3.0541290483
 H        -3.1477893724        2.7537336519       -2.5861873737
 H        -4.1145814278        1.4221002114       -2.1100136860
 H        -3.1193555318        2.2874682897       -0.8223156992
 H         0.7773722698        4.9113425259       -2.1049545685
 H         1.2665320047        3.3247455451       -2.7804010623
 H         4.5587563896        2.7057182893        0.4403016835
 H         5.2057053419        3.5588735962        1.8609598262
 H         4.6742148500        3.6434930260       -1.7578028559
 H         5.1498717463        5.2974335847       -1.1961503420
 H         4.1111141106        5.2362956339       -2.4403568301
 H         1.8310175663        6.2740679942       -1.6858009236
 H         1.6224095613        6.2073996343        0.0447528420
 H         3.1363553222        7.0350708792       -0.6840664638
 H         3.4793494911        3.2854245548        3.1841426204
 H         2.4215610680        2.3116929028        1.9642898570
 H         2.7163451910       -2.6138142714        2.0745663989
 H         1.6198045072       -1.8552376515        0.8259834888
 H         5.1347429109       -0.6381135130        4.4615583637
 H         4.9352341792       -1.5083074587        2.9621509851
 H         3.9608675117       -1.8820521532        4.3545044646
 H         1.6985115338       -0.5433676723        4.3600855421
 H         2.8733077861        0.4431193576        5.4155308029
 H         1.8856174592        1.3071938804        4.1637454896
 H         4.7129082887       -1.8679496029        0.8254920919
 H         3.9311691984       -0.4776790732        0.4947561503
 H         7.1219242685       -3.2949478982       -2.2990627767
 H         6.7754193854       -2.2572948575       -3.6211959205
 H         4.3646407303       -3.9428415808       -0.2640817158
 H         5.7142690164       -4.3486249221       -1.2314426236
 H         4.0776423499       -4.7592809952       -1.9437928937
 H         4.9394345727       -3.2834549777       -3.9158983792
 H         3.1233990611       -2.8618214145       -3.8272014302
 H         4.2122062725       -1.5509512086       -3.8686970854
 H         8.3777468266       -0.9075793468       -1.4010196663
 H         9.2649384889       -1.8966298278       -2.2975082744
 H         9.8753791852        2.3264184691       -0.3264519249
 H        10.4052415139        3.5932745144       -1.5953750310
 H         8.9045383306        3.6587761228       -0.7999247522
 H        11.1776905890       -0.4045169687       -2.7147962761
 H        10.1901209571        0.0922171912       -1.2586487009
 H        11.4753943956        1.1108185221       -1.8116726784
 H        10.8289201797        2.4899024805       -4.0480244685
 H        10.0391632691        1.1883930532       -5.1677751946
 H         9.0483895564        2.5226487101       -4.6047439762
 Na        1.2387109164        0.3619795494       -0.7286439364
