155

 C        -8.4603604718       -7.6559277107        3.4627912775
 C        -8.1189448057       -6.7685388048        2.2686978169
 C        -9.0767669775       -6.7275786983        1.1225401535
 C        -8.8593192397       -5.8366921769       -0.2347684548
 C        -7.7492069518       -4.8046223171       -0.3036365176
 C        -9.4576710759       -8.0471351383        0.5838890593
 C       -10.4367058695       -6.1687926751        1.6404533187
 O        -7.0191863744       -6.1683152168        2.2002211961
 O        -9.3220167742       -6.1235302026       -1.3104800007
 C        -7.8862404365       -3.7767246854       -1.5154866038
 C        -7.2935668675       -2.4348084579       -0.9942720901
 C        -8.0871490974       -1.0710777868       -1.3300804784
 C        -7.2631244253        0.1371851476       -0.5365502456
 C        -7.6790581072        0.5397254477        0.8599162972
 O        -6.1941987614       -2.3551248249       -0.4971359582
 O        -6.1882671293        0.5681042218       -0.9986612498
 C        -7.9415471011       -0.9306905575       -2.8495081247
 C        -9.5984471106       -1.1115077459       -0.9601371025
 C        -6.8205342328        1.4935452485        1.6240720305
 C        -5.8540158608        0.8073668559        2.6515929057
 C        -4.3971833724        1.4314019960        3.1197777078
 C        -3.5414978328        1.0909437360        1.8913715047
 C        -3.0519246488       -0.3858554926        1.6762641804
 C        -4.2832723273        2.9489351936        3.3135807493
 C        -3.9973404870        0.5856406489        4.3150636479
 O        -6.2514694397       -0.2325902405        3.1793634425
 O        -3.3101450098        2.0035903286        1.0943286276
 C        -2.8756807906       -0.7716533824        0.1959811987
 C        -1.5970996238       -0.1615324216       -0.5043837123
 C        -1.8148087055        0.5600433232       -1.8948671210
 C        -0.5972231836        1.4620523855       -1.8752972030
 C        -0.3936260879        2.6086411351       -0.8697462250
 O        -0.5800998035       -0.3469706737        0.0916212157
 O         0.4208545001        1.2695068895       -2.5634312861
 C        -1.6984025069       -0.3273421018       -3.1240355150
 C        -3.1580213962        1.4685923545       -1.9733857739
 C         0.6406789740        3.6861095808       -1.2922520570
 C         2.1347890269        3.5056311208       -0.8108158862
 C         3.1136075267        4.6571130470       -0.6662242719
 C         3.8965473063        4.6913142990        0.8197370593
 C         4.4348975999        3.2560026989        1.4590687633
 C         4.3184595572        4.4763953910       -1.6746121303
 C         2.4581448105        6.0214940392       -0.9095535566
 O         2.5198400233        2.3280156404       -0.6481860918
 O         3.7059251993        5.7277054202        1.4235345172
 C         3.3964496803        2.7343510271        2.4866826406
 C         4.0051306363        1.4204537445        3.0208031558
 C         3.0616626721        0.2310545688        3.2831518723
 C         2.6061485450       -0.1676052938        1.8675825034
 C         3.0174461013       -1.4786564735        1.1897051676
 O         5.2385540912        1.3257217863        3.2233433849
 O         1.8342516097        0.6456681914        1.3221099853
 C         3.6743028974       -0.8734775509        4.1260292818
 C         1.8294375979        0.6432315345        4.1433366265
 C         4.2165246991       -1.2755110589        0.1315385965
 C         3.8803106023       -1.7647362112       -1.2177020677
 C         4.9384546504       -2.5102305621       -2.1110190598
 C         6.1455525194       -1.4329502750       -2.1141401385
 C         7.5910753574       -2.0356039585       -2.3351837518
 C         5.2074064272       -3.9752977869       -1.4518218092
 C         4.4841940549       -2.5703969212       -3.5490895202
 O         2.7436597791       -1.5462435534       -1.7116304880
 O         5.9692996412       -0.2233050532       -2.0797361023
 C         8.6834404115       -0.8901562027       -2.0516030875
 C         8.7051824727        0.1859548549       -3.2611651104
 C         9.3296550284        1.7561447588       -2.9285327405
 C         8.3429702110        2.3351135871       -1.9211297965
 C         8.9149350479        2.4991434850       -0.4899859073
 O         8.2887441763       -0.1089921974       -4.3399512680
 O         7.1696561431        2.4900563679       -2.2857210641
 C        10.7792276629        1.5888171029       -2.4894194029
 C         9.3282489260        2.4846765333       -4.2849571108
 H        -7.5534391334       -7.8133550039        4.0209123791
 H        -9.1784727937       -7.1589842383        4.1333258985
 H        -8.9970963024       -8.6152041764        3.3519327718
 H        -7.5418198415       -4.2272681626        0.6549798088
 H        -6.8704790171       -5.4665522714       -0.3940536828
 H       -10.0459679275       -7.9447848060       -0.2946311066
 H        -9.9738601953       -8.6127240020        1.3759804388
 H        -8.5450405875       -8.5989322967        0.2704612610
 H       -10.9428605549       -6.9133073626        2.1456347693
 H       -10.3882642592       -5.2402617709        2.1640237709
 H       -11.0520525742       -5.9688598036        0.7585919406
 H        -7.4062584490       -4.1895325809       -2.3642283753
 H        -8.9196570483       -3.6191194611       -1.7764081922
 H        -8.7670510589        0.8548175287        0.8689825276
 H        -7.7611303687       -0.5101896514        1.4319771033
 H        -8.1243702698        0.0368240129       -3.2056564325
 H        -8.7360615546       -1.6023339025       -3.3090167030
 H        -7.0195165635       -1.3406987607       -3.1807251188
 H        -9.7649216802       -1.3955908321        0.0409577718
 H       -10.1335252490       -0.2218124442       -0.9788204953
 H       -10.1022052007       -1.7275277224       -1.6211553945
 H        -7.3962054965        2.1515150016        2.2074283620
 H        -6.2323611342        2.1147705790        0.9390560763
 H        -2.2518988459       -0.6365562645        2.3344711291
 H        -3.8467706468       -0.9082259940        2.0749417683
 H        -3.5342887961        3.4662306481        2.6742509733
 H        -4.0564441220        3.1157485006        4.3954290255
 H        -5.2527033303        3.4604014520        3.1508931257
 H        -2.9631158389        0.8060476281        4.5993643985
 H        -4.6334731028        0.7703119087        5.2216233957
 H        -4.2021007202       -0.4972944972        4.1322961822
 H        -2.7857486264       -1.9109890318        0.1360591638
 H        -3.8321869161       -0.6928597099       -0.3923226455
 H        -1.3158217012        3.0678353294       -0.5786453997
 H         0.0504573357        2.2069974420        0.0556086855
 H        -0.6199381333       -0.6061975942       -3.1593934139
 H        -2.0140093111        0.1958461568       -4.0169832333
 H        -2.2065035654       -1.2811494813       -3.0090808299
 H        -3.1224169353        2.2178998692       -2.7751968097
 H        -3.9393536185        0.7504523444       -2.1373123964
 H        -3.1808544210        1.9798654357       -1.0357150202
 H         0.3928967741        4.4906046012       -0.6137524229
 H         0.5894116702        3.9346443162       -2.3268668805
 H         4.5450967976        2.6233936814        0.5287732355
 H         5.3682465164        3.4061478526        1.9373983368
 H         4.6211996416        3.4209444425       -1.5582654743
 H         5.2544939872        5.1180760192       -1.6003751765
 H         4.0468672571        4.3874402574       -2.7431867752
 H         2.0114456051        5.9223310515       -1.8770006830
 H         1.7279531580        6.2315459841       -0.0576260886
 H         3.1515509676        6.8698533439       -0.9527595414
 H         3.1914330932        3.4902607741        3.2219029739
 H         2.4384405939        2.6328109036        2.0153609862
 H         3.3221676601       -2.1362026799        1.9841429021
 H         2.1507317630       -1.9914781170        0.7639623875
 H         4.1892781162       -0.4433768501        4.9365359906
 H         4.4035084365       -1.5483843470        3.6561313117
 H         2.8463284396       -1.4959974798        4.4727215133
 H         1.0788926710       -0.1317351336        4.0033479582
 H         2.2685488367        0.6351604407        5.1541925402
 H         1.5050558519        1.6267843129        3.7611747971
 H         5.1704579974       -1.8366951007        0.5427728836
 H         4.5269107878       -0.2303020200       -0.0492574569
 H         7.7810711630       -2.8725400548       -1.6431294318
 H         7.7092011570       -2.3015102566       -3.3934801386
 H         6.2891736912       -4.1384234116       -1.4910929466
 H         4.7760237748       -4.6879395282       -2.1910896349
 H         4.7285373903       -4.2778949776       -0.4589239787
 H         5.1910893751       -3.2299404240       -4.0399772762
 H         3.4908738145       -3.0774069014       -3.5546645936
 H         4.3561214383       -1.5823086930       -4.0116962729
 H         8.4549295628       -0.2754947717       -1.1852496275
 H         9.6782122967       -1.2824219415       -1.7679830695
 H         9.4333872202        1.6718247882       -0.0256726666
 H         9.6196878628        3.3462130258       -0.6214806011
 H         8.0902281491        2.8721327443        0.1576975820
 H        11.3619310139        1.4051271020       -3.3618443657
 H        11.0570647434        0.7942838383       -1.7674162457
 H        11.2035934934        2.6048576523       -2.1882295057
 H         9.7976963652        3.4671703080       -4.1239893298
 H         9.8428725574        1.9609174615       -5.1809630112
 H         8.2249593469        2.5946832484       -4.5593346796
 Na        1.4882439929        0.1980655153       -0.9095661209
