155

 C        -8.4153682451       -7.8427698348        3.2173211040
 C        -8.1173210376       -6.9533370976        2.0917693462
 C        -9.1027310468       -6.9140036288        0.9422278355
 C        -8.8084361462       -5.9465661804       -0.3145471842
 C        -7.9460923913       -4.7847963178       -0.0915874411
 C        -9.4905598153       -8.2864188836        0.4344969546
 C       -10.2732787952       -6.1717752614        1.4235938308
 O        -7.2434220728       -6.1155795772        2.0926625388
 O        -9.2606208590       -6.1611397272       -1.4192990697
 C        -7.9865862910       -3.6754017145       -1.2008712179
 C        -7.2710708606       -2.2867342170       -0.9451696078
 C        -8.0143873775       -0.9891727289       -1.3082936989
 C        -7.3175571585        0.2689238359       -0.5310617335
 C        -7.8070384458        0.5353065082        0.9022442187
 O        -6.1931060366       -2.2377747557       -0.3909129759
 O        -6.3727043318        0.8228767588       -1.0029026686
 C        -7.7524083105       -0.5955065476       -2.8624474577
 C        -9.5513076084       -0.8635299273       -0.9620186006
 C        -6.7970738609        1.5151424125        1.6389280970
 C        -5.9896595821        0.7338885930        2.6470706119
 C        -4.5433373009        1.1951119942        3.1107332383
 C        -3.5987390433        0.9017835349        1.9013912885
 C        -3.3640016319       -0.6339931642        1.5366524169
 C        -4.5316791654        2.6933331843        3.6058499834
 C        -4.0962131369        0.3910620208        4.3654667428
 O        -6.3296260669       -0.3466607390        3.0564846036
 O        -3.1206261568        1.7593120402        1.2066157401
 C        -3.0723431535       -0.8072636689        0.0038985833
 C        -1.8198624328       -0.2101393831       -0.4974197277
 C        -1.6751285946        0.5785349752       -1.8441534281
 C        -0.4128972941        1.5073422710       -1.7920692274
 C        -0.4247138016        2.6296027605       -0.8241900527
 O        -0.7162856722       -0.5475694781        0.0547177158
 O         0.4819038654        1.3453455328       -2.5653529412
 C        -1.5366866768       -0.5387257588       -2.9006671834
 C        -2.9946400633        1.4088582145       -2.1447412112
 C         0.5658249331        3.8264423669       -0.8718430575
 C         2.1208176774        3.3793907733       -0.8345305403
 C         3.1361470675        4.5128611399       -0.6860765612
 C         3.7601052116        4.6803362308        0.8035764027
 C         4.4475457207        3.3824105152        1.4832276205
 C         4.2081418677        4.1928225742       -1.6422264456
 C         2.6216192309        5.9814698886       -1.0626124159
 O         2.4734603196        2.2461981688       -0.8828650960
 O         3.5724034210        5.7504257260        1.3223286263
 C         3.5221836334        2.7723815479        2.5238266624
 C         4.0797834915        1.4603710494        3.0554040933
 C         2.9856233688        0.2860579332        3.3816017265
 C         2.6725165250       -0.2107358593        1.9415360600
 C         3.1892431756       -1.5631780097        1.2147409296
 O         5.2084969581        1.1428592280        3.0812393929
 O         2.0507854339        0.5860131971        1.2884057654
 C         3.6608430725       -0.7564134112        4.2023325420
 C         1.6126993654        0.8457451386        3.9781788015
 C         4.2223755411       -1.1267313513        0.1246132004
 C         3.9318743509       -1.6570384812       -1.2997555236
 C         5.1209910756       -2.3121429178       -2.0309496162
 C         6.4415259048       -1.2895316551       -2.0543073927
 C         7.8753922773       -1.8960342962       -2.2260588675
 C         5.3385509208       -3.6278948592       -1.3434232473
 C         4.8440181119       -2.5777210257       -3.5875809964
 O         2.7883412403       -1.7565771119       -1.6508473177
 O         6.1648704858       -0.0862142576       -2.1177810630
 C         8.9413813178       -0.8327061829       -2.2059398813
 C         8.7735067850        0.2760732565       -3.3568243416
 C         9.1183440015        1.7634615847       -2.9327616000
 C         8.1500150702        2.3031340650       -1.7742534875
 C         8.6733017707        2.4924931856       -0.3586667802
 O         8.4027372761       -0.0130648147       -4.4815792065
 O         7.1643905655        2.9166040705       -2.1105777238
 C        10.6649689287        1.7620537098       -2.4715855904
 C         8.9478583039        2.5866530370       -4.1823727938
 H        -7.5768462545       -7.8531869657        3.9359334310
 H        -9.3690851646       -7.7204766769        3.7088788889
 H        -8.5571836131       -8.8452974843        2.8436477421
 H        -8.1458542384       -4.3255793703        0.8598395265
 H        -6.9277684111       -5.2317530354        0.0223083543
 H       -10.1743675347       -8.1690057530       -0.4117682408
 H        -9.9146100320       -8.8869273410        1.1995180733
 H        -8.6316378755       -8.7544856524       -0.0177607313
 H       -10.6932736643       -6.7020375460        2.3692935720
 H        -9.9697234801       -5.1358676564        1.5349800085
 H       -11.0633467127       -6.0864090230        0.7363065110
 H        -7.5642642374       -4.1572570151       -2.1455990507
 H        -9.0548204527       -3.5025731824       -1.4901134235
 H        -8.8040273436        0.9394709407        0.9037631182
 H        -7.8598831983       -0.3862833864        1.3076998705
 H        -7.1684543034        0.3745128683       -2.9137160869
 H        -8.6165096870       -0.4735743500       -3.5006028788
 H        -7.1242654122       -1.4357456225       -3.1855001288
 H       -10.0202363856       -0.8223608564        0.0665575051
 H       -10.0355615536        0.0509221063       -1.4802539911
 H       -10.0734156832       -1.7745615013       -1.4645535966
 H        -7.3524511489        2.2892842824        2.2617128568
 H        -6.2017297621        2.0623377218        0.9012988338
 H        -2.4482139541       -0.9519551697        2.1176300215
 H        -4.1561375522       -1.3773303069        1.9411191011
 H        -3.4949036644        2.9149191049        3.7798327867
 H        -5.2028355097        2.8740378478        4.4513822261
 H        -4.7521182234        3.3677678131        2.8070933559
 H        -3.0174122422        0.5695584842        4.5748137078
 H        -4.6349309347        0.7116965453        5.2336712082
 H        -4.2641700657       -0.6973111997        4.2449677632
 H        -3.1265007769       -1.8544330336       -0.0880079278
 H        -3.8050831411       -0.4722141019       -0.6915309386
 H        -1.5303985602        2.9143614635       -0.9045321340
 H        -0.3502611084        2.2084594902        0.2015215632
 H        -0.6329157494       -1.1250979268       -2.7477468437
 H        -1.5810426772       -0.1501179303       -3.9444549521
 H        -2.4040577409       -1.2031101289       -2.7434988609
 H        -2.6740070319        2.1809798489       -2.8122225498
 H        -3.6732458039        0.6878841580       -2.6392807642
 H        -3.4053416519        1.8789210187       -1.2381710177
 H         0.5072729207        4.5384637890       -0.0370335716
 H         0.4405971683        4.3444210179       -1.8454718441
 H         4.5867139717        2.7170839461        0.6599993814
 H         5.4508523379        3.6654994429        1.8916295254
 H         4.4575653984        3.1923927573       -1.8585337134
 H         5.0661886394        4.6697473589       -1.3239739200
 H         3.9831482451        4.5656741746       -2.6428930488
 H         2.0095202631        5.9766276952       -2.0014306858
 H         2.1445439609        6.3975697114       -0.2124741559
 H         3.4611193287        6.6278545699       -1.2706323881
 H         3.3343812684        3.4368416522        3.3938912918
 H         2.4868248191        2.7034970525        2.1135518936
 H         3.4785386811       -2.4266185801        1.8664889773
 H         2.2453699887       -1.9419513049        0.7772656754
 H         4.2960255969       -0.3029452579        5.0382526417
 H         4.3536596206       -1.2945288201        3.5385592030
 H         2.9780468526       -1.5486053608        4.5695771994
 H         0.8292377172        0.3029085722        3.4734637273
 H         1.6111429193        0.4887961741        4.9711493493
 H         1.5122658839        1.8619216011        3.7844141219
 H         5.1519943571       -1.4138543634        0.4852163105
 H         4.2267607918       -0.0013585762        0.0447904273
 H         8.0476497187       -2.5640222686       -1.3535673997
 H         7.8661206383       -2.3651736840       -3.2243095914
 H         5.9099802858       -4.3259980059       -1.9460297901
 H         4.3956897961       -4.0572046133       -1.0343429212
 H         5.9760943175       -3.4701884448       -0.4817602022
 H         5.7814140312       -2.9774301550       -4.0752891315
 H         4.0877633802       -3.3310537526       -3.7108525575
 H         4.6149474294       -1.6296983187       -4.0653928121
 H         8.8731271065       -0.3227700099       -1.2028918130
 H         9.9852890974       -1.2019485516       -2.2810585415
 H         9.4241183795        1.7031027598       -0.2521388554
 H         9.2177291740        3.4183610986       -0.2543975774
 H         7.8647734538        2.3988832382        0.3473638545
 H        11.3165824039        1.3769520448       -3.2916251828
 H        10.7457160377        1.0442389202       -1.6982691671
 H        11.0424784324        2.6464225681       -2.0977672962
 H         9.5572869333        3.4896454803       -4.2067051859
 H         9.3202771126        1.9934249677       -4.9297880858
 H         7.9374613669        2.8741327983       -4.3792188672
 Na        1.5856378521        0.0022982915       -0.8309308440
