155

 C        -8.2128758650       -8.1787829914        2.9209318122
 C        -8.1983323567       -6.9216360100        1.9613364827
 C        -9.2135181729       -6.8183494295        0.8417447714
 C        -8.7408541281       -5.8724259371       -0.3737073951
 C        -8.1202253319       -4.5372833165        0.0144692153
 C        -9.5107677331       -8.2246532015        0.2379092183
 C       -10.5662702759       -6.3222609567        1.3490120548
 O        -7.2033227638       -6.2622387802        2.0470419703
 O        -8.8436115483       -6.1419928375       -1.5677818160
 C        -8.2715932128       -3.4211515296       -1.0664411304
 C        -7.3200703093       -2.1650969003       -0.8320226993
 C        -7.9353062227       -0.8107138660       -1.3284495697
 C        -7.2807230549        0.4354068484       -0.5039109314
 C        -7.8178497265        0.8153171041        0.9170024583
 O        -6.2403784906       -2.2398138813       -0.2689639482
 O        -6.3893438742        1.0904372044       -1.0122509754
 C        -7.6504171518       -0.6724743594       -2.7931770628
 C        -9.4802801344       -0.7908791032       -1.1288026827
 C        -6.7479616145        1.3942411458        1.7752462015
 C        -6.0458195520        0.3799010743        2.7142945103
 C        -4.6251499615        0.8868427813        3.1172473998
 C        -3.6719398640        0.6957700082        1.8768107889
 C        -3.5330435695       -0.6971235852        1.3626636619
 C        -4.7097040028        2.4412392622        3.3479366076
 C        -4.1271428508        0.0691592722        4.3196713010
 O        -6.5309586583       -0.6461264417        3.0879790539
 O        -2.9485396371        1.5921936694        1.4028701326
 C        -3.2846874142       -0.6526954903       -0.1247635205
 C        -1.8220200229       -0.2221159246       -0.4733206582
 C        -1.6597813984        0.5207093236       -1.8084688183
 C        -0.4667088353        1.5547137017       -1.6808664988
 C        -0.4926766445        2.6477800560       -0.5867201781
 O        -0.8612383282       -0.6380388064        0.0631072766
 O         0.3702708893        1.5134879604       -2.5740693390
 C        -1.3209695866       -0.6256653715       -2.8652285066
 C        -2.8995887576        1.3202451471       -2.2263058943
 C         0.5152276264        3.7631264737       -0.6729293965
 C         2.0454812405        3.3392103353       -0.8875278818
 C         3.1455102533        4.4963300967       -0.8167685142
 C         3.6101278258        4.5720985133        0.7558055937
 C         4.3238335508        3.3532250609        1.2807756409
 C         4.4148958838        4.0253412325       -1.6308166704
 C         2.6123288665        5.7947250910       -1.3546701337
 O         2.4518826736        2.1651649293       -0.9125306665
 O         3.4598762517        5.5468977323        1.4300629146
 C         3.6460686433        2.8335966287        2.5795431623
 C         4.1259574847        1.4443205547        2.9758541072
 C         3.0110668371        0.3171419236        3.4093111285
 C         2.6677165916       -0.2059763296        1.9185571649
 C         3.5481324723       -1.3157191205        1.2546756818
 O         5.3119814138        1.1798226570        2.9829621472
 O         1.8043803856        0.4249322913        1.3084548269
 C         3.6234606203       -0.7374313561        4.3402709398
 C         1.6768337763        0.9172175823        4.0818221556
 C         4.3471345634       -0.7804908535        0.0371203534
 C         4.1409306315       -1.6341059280       -1.2308886343
 C         5.3707981875       -2.1833485642       -1.9347793953
 C         6.5777314670       -1.1813055649       -1.9440896807
 C         7.9710090279       -1.8575420913       -2.2033067411
 C         5.8863253602       -3.5386459770       -1.2775321948
 C         4.8672026494       -2.5160829544       -3.4187742833
 O         3.0357392749       -1.6888994630       -1.7904299823
 O         6.3715006349       -0.0398543934       -1.8315458618
 C         9.0252313534       -0.6968444395       -2.2294191276
 C         8.6872869204        0.3638401635       -3.2328463590
 C         9.0112682219        1.9212812170       -2.9248624637
 C         8.1184618059        2.4772331325       -1.7761680414
 C         8.4708867543        2.1993283820       -0.2568264121
 O         8.4469272377        0.0008508840       -4.3607552081
 O         7.1079076666        3.1261662459       -1.9579582259
 C        10.4804233671        1.9298836593       -2.5606170450
 C         8.7120586304        2.8946629953       -4.2242694039
 H        -7.7136531752       -8.0298655620        3.8541690266
 H        -9.2035476343       -8.6148630591        3.1208059085
 H        -7.7558299805       -9.0092021565        2.3763283190
 H        -8.3951414356       -4.1146158679        0.9880258644
 H        -7.0664211293       -4.7118744838        0.0042977177
 H       -10.1059216487       -7.9714605814       -0.6417770010
 H       -10.1919877003       -8.7719073282        0.9257166193
 H        -8.6830219668       -8.8319131690       -0.1000150579
 H       -11.0090130856       -6.9035146174        2.0787632697
 H       -10.5083833025       -5.2420129238        1.5430142559
 H       -11.2291965889       -6.2677602165        0.4052572304
 H        -7.9860335045       -3.8296019210       -2.0234416276
 H        -9.2807333001       -3.0735738763       -1.2123748599
 H        -8.6641029659        1.5218366510        0.7083786875
 H        -8.2239779619       -0.1547117916        1.4721148491
 H        -6.7058307802       -0.1996787198       -2.9616488678
 H        -8.3455426353        0.1184339949       -3.0991895065
 H        -7.7376893686       -1.6283802347       -3.3334125176
 H        -9.6688722768       -1.2935530938       -0.1855337853
 H        -9.8323795742        0.1577846282       -0.8958855424
 H       -10.1209502290       -1.2513190289       -1.7956835827
 H        -7.1527106603        2.2241666203        2.3464317375
 H        -5.9800743372        1.8411327675        1.0918052709
 H        -2.8545038961       -1.1931497141        2.0280506984
 H        -4.4573529273       -1.1674500682        1.4943700165
 H        -4.1733831778        2.7099278916        4.2690620693
 H        -5.7679107954        2.7165446035        3.2466847350
 H        -4.0838041260        2.9870469499        2.5974912586
 H        -3.1214967700        0.3327367799        4.6180727728
 H        -4.7494356341        0.1638706150        5.2309773953
 H        -4.0126005055       -0.9348648462        3.9892725244
 H        -3.4962622771       -1.7241513564       -0.4804055083
 H        -4.0843554147       -0.0300569311       -0.6257545632
 H        -1.4588745962        3.0595116076       -0.6274939822
 H        -0.4331074212        2.1974651843        0.4071267077
 H        -0.6230285343       -1.3781950684       -2.5147988658
 H        -0.8208306405       -0.1070244945       -3.6517555799
 H        -2.2194429226       -1.0466998376       -3.2831259105
 H        -2.6223192916        1.8282507724       -3.1672554910
 H        -3.6845912564        0.6033549606       -2.3040637664
 H        -3.1402842601        2.0461040425       -1.4513163853
 H         0.5593045325        4.3743654834        0.2634418996
 H         0.2899035000        4.4708119248       -1.4956374861
 H         4.3719058575        2.5599568526        0.4937009664
 H         5.3596811092        3.6357870375        1.4601944368
 H         4.9106299411        3.0872774956       -1.1927623659
 H         5.2564694046        4.7715926041       -1.5865978390
 H         4.2330026728        3.7533357989       -2.6386903060
 H         2.8058322134        5.8303619276       -2.3791143175
 H         1.6228601405        6.1785003363       -1.0492374988
 H         3.3404236577        6.5144883137       -0.9275723942
 H         3.7879688668        3.4488540698        3.5046186020
 H         2.5142980973        2.8396834749        2.4710384152
 H         4.1273628947       -1.6701952253        2.0655548174
 H         2.9122827417       -2.1679822011        1.0276446111
 H         3.4428176899       -0.4737687421        5.3346400499
 H         4.6846744529       -0.8352546712        4.1695224622
 H         3.2288347647       -1.7093192066        4.1587091028
 H         0.8448886727        0.2665110561        3.8604932392
 H         1.8319274349        0.8390912427        5.1562805421
 H         1.4796296073        1.9373361906        3.6407481182
 H         5.4231618893       -0.6461972274        0.3414832533
 H         3.8911094449        0.1284109709       -0.1972452837
 H         8.2762230253       -2.5078576689       -1.4247126427
 H         7.8534431483       -2.2707944991       -3.1904545359
 H         5.9248373754       -4.4883544561       -1.8206991324
 H         5.2072031231       -3.7386288143       -0.4501568933
 H         6.8913303205       -3.3334493970       -0.9339463090
 H         5.6082524848       -2.8637661332       -4.0986817796
 H         4.0568687886       -3.2910864087       -3.3324245269
 H         4.6344105223       -1.5023745058       -3.8630721943
 H         9.0710300621       -0.2976748125       -1.2240190121
 H         9.9941120898       -1.0217725490       -2.6298498635
 H         9.1781893995        1.4290655397       -0.0286066109
 H         9.0101467903        3.1426117481       -0.1075636377
 H         7.5529085118        2.1883329232        0.3137438806
 H        10.9609621186        1.5005711759       -3.4141978951
 H        10.7973100815        1.4010498194       -1.6109007089
 H        10.8332589874        3.0152171464       -2.3673940771
 H         8.7246438752        3.9702533103       -4.1651713836
 H         9.4199367776        2.5664537268       -5.0669513736
 H         7.6395212815        2.7414238350       -4.4613198682
 Na        1.3716694148       -0.2150875522       -0.9526247579
