155

 C        -8.2662122373       -8.3629360060        2.4764117110
 C        -8.2044462441       -7.0883888424        1.7818496748
 C        -9.1874008997       -6.8814023942        0.6489196905
 C        -8.6074567536       -5.7446659574       -0.3287001005
 C        -8.3439099960       -4.2991164921        0.2016258068
 C        -9.4463491822       -8.1567403125       -0.2094312452
 C       -10.5638747863       -6.2927882389        1.3706208420
 O        -7.2749493777       -6.2854343865        1.9892670652
 O        -8.4083767921       -6.1016610991       -1.4552625581
 C        -8.3455517501       -3.3691694435       -0.9890717376
 C        -7.5417755530       -2.1178470379       -0.7275741261
 C        -8.0225898953       -0.6485329461       -1.3014075997
 C        -7.2842338601        0.4026038961       -0.5817970384
 C        -7.9283599672        0.7393607704        0.8459434928
 O        -6.4348372522       -2.1307793697       -0.2400274599
 O        -6.3372126640        1.0712954238       -1.0438531026
 C        -7.5240848457       -0.7382755333       -2.8622759805
 C        -9.5163107120       -0.4547240928       -1.2356111031
 C        -7.0145375311        1.4197911732        1.8977284491
 C        -6.0846035983        0.4275926265        2.7010169885
 C        -4.6533563380        0.7466954927        3.1938919653
 C        -3.6326945064        0.4727767842        1.9785406197
 C        -3.6234467740       -0.9628383574        1.2802622111
 C        -4.5028151922        2.1974009289        3.6908935963
 C        -4.2131936916       -0.1847098102        4.3770374871
 O        -6.5321684063       -0.7033330630        2.9576884822
 O        -2.8776890506        1.2966077429        1.5801788652
 C        -3.3605770457       -0.8368355526       -0.2134916446
 C        -2.0194734001       -0.2733363629       -0.6344196772
 C        -1.7215370292        0.5895594803       -1.9605544620
 C        -0.5038121000        1.6699852823       -1.7266679774
 C        -0.4281325874        2.4476150823       -0.3492974076
 O        -0.9802058425       -0.6267574851        0.0534576727
 O         0.3668043565        1.7385377407       -2.5823594971
 C        -1.1617197659       -0.3534704808       -3.0507779408
 C        -2.9565842472        1.3322189137       -2.5593664171
 C         0.5116676862        3.6139495166       -0.6935049421
 C         2.0350770341        3.1164031519       -0.8066530732
 C         3.1331192134        4.2276086527       -0.9693053863
 C         3.4424228154        4.3788327578        0.5700441019
 C         4.1757842903        3.2423069736        1.2397215091
 C         4.4200732832        3.8746429305       -1.8268953621
 C         2.6345310832        5.6353898046       -1.3653045740
 O         2.3662296777        1.9591945261       -0.7781989010
 O         3.1386648035        5.3262797235        1.3124784841
 C         3.7080554054        2.9801127459        2.6786622652
 C         4.1251685739        1.4471597374        3.0701956881
 C         3.0547538018        0.4234968045        3.3733552386
 C         2.6888588448       -0.1563273282        1.9513795118
 C         3.7791298272       -1.0709050875        1.2692534214
 O         5.3239148215        1.1552002196        2.9704614033
 O         1.5831369404        0.0296338633        1.4505251924
 C         3.7416670056       -0.7695653934        4.2693221482
 C         1.8100771363        0.9977127891        4.0818193911
 C         4.5535584780       -0.4342108321        0.0824164256
 C         4.3572227574       -1.4258014099       -1.0843073306
 C         5.5315418044       -2.1413021518       -1.8248957565
 C         6.7747580194       -1.2305603635       -1.8311080711
 C         8.1864589811       -1.7244874647       -2.3792653738
 C         5.6541981382       -3.4935162578       -1.0434266103
 C         5.2334242843       -2.5369579734       -3.2927416075
 O         3.2184984884       -1.4956027976       -1.5496607845
 O         6.6245601793       -0.0153403615       -1.5557687647
 C         9.1783810475       -0.5398273971       -2.3057188162
 C         8.7145990699        0.6395252324       -3.2541522533
 C         8.9934267926        2.0973046991       -2.9556371397
 C         8.0537873118        2.4467047224       -1.7026737947
 C         8.3385916655        2.0829882168       -0.2491465425
 O         8.2407460596        0.2571237697       -4.3001859559
 O         7.1876573781        3.2658181589       -1.8985544644
 C        10.4931684970        2.4720978675       -2.5822557715
 C         8.5129615504        2.8470707352       -4.1557503413
 H        -8.0779750238       -8.1899215810        3.5754379138
 H        -9.1461215188       -8.9869533783        2.4055336749
 H        -7.4126779697       -8.9398135266        2.0700114857
 H        -9.0159216159       -3.9225672076        0.9796120834
 H        -7.2299293001       -4.2896603835        0.4834424756
 H       -10.0035455143       -7.8505494186       -1.0917269664
 H        -9.9590158143       -8.9753475299        0.2631880232
 H        -8.4330301588       -8.4878116780       -0.5493004601
 H       -10.9018153053       -7.0941427100        2.0862914942
 H       -10.4012383785       -5.4105563488        1.9665107867
 H       -11.2808044216       -6.1349075976        0.6615155218
 H        -7.6721151976       -3.8375289626       -1.7272925779
 H        -9.2859955361       -3.1238471582       -1.4769780930
 H        -8.7563857064        1.4048130830        0.5495309456
 H        -8.2894540499       -0.0985473067        1.3196697753
 H        -6.7015433615       -1.4514001927       -2.8463229225
 H        -7.0522116253        0.2210456934       -3.1089940799
 H        -8.2500705450       -1.0910281870       -3.5313313347
 H        -9.9880367794       -0.6974594305       -0.3077336521
 H        -9.6783571408        0.6086265696       -1.4910198556
 H       -10.1107007752       -1.0215075178       -1.9559099266
 H        -7.7152016627        1.8730617551        2.6230531680
 H        -6.4546532635        2.2347067032        1.4943405591
 H        -2.7561027632       -1.4005251110        1.8164807296
 H        -4.5523480374       -1.5141156159        1.5792495834
 H        -3.7943252816        2.1759508902        4.5153219973
 H        -5.4849638899        2.5560877192        3.9043040273
 H        -4.0316103291        2.8114462079        2.9380452586
 H        -3.2051252360       -0.0038172396        4.8037072956
 H        -4.9066647393        0.0461153152        5.1552985203
 H        -4.1297798995       -1.2834801489        4.1389112561
 H        -3.2950259704       -1.7808276852       -0.7378590793
 H        -4.1336909749       -0.2548872239       -0.6911721674
 H        -1.3121534370        2.8639254993        0.2366425562
 H         0.0681009527        1.7142338396        0.3191401161
 H        -0.2836099948       -0.8953896742       -2.6743918110
 H        -0.7878615099        0.1414520993       -3.9619590562
 H        -1.9556510822       -1.0442480008       -3.3124979933
 H        -2.5252725447        1.8983485672       -3.3410990475
 H        -3.7271120137        0.6040206121       -2.8696288846
 H        -3.4248300978        1.9254476042       -1.7867197859
 H         0.4695701575        4.3589171272        0.0744136681
 H         0.3253993112        4.0805196820       -1.6483667835
 H         4.1621000357        2.3649053071        0.6179809860
 H         5.2553891254        3.4382931149        1.3387102608
 H         4.9902634511        3.0269879309       -1.6194589564
 H         5.1111800329        4.7029482792       -1.7318174966
 H         4.1026738054        3.8341575144       -2.9437967138
 H         2.3842621901        5.6786086795       -2.4864086283
 H         1.6766295082        5.7501198498       -0.8412943681
 H         3.2842160886        6.4585856680       -1.1426052533
 H         4.1531578557        3.6478021466        3.3861183025
 H         2.6335553139        3.0332605551        2.8509043871
 H         4.4445349150       -1.4156107435        2.1031171820
 H         3.2331506305       -1.9646832640        0.9481466766
 H         3.4995345789       -0.5577979163        5.3254097804
 H         4.8006884768       -0.8903914100        4.1119630781
 H         3.2742271237       -1.7519992798        4.1069638807
 H         1.4180258471        0.2074271862        4.7677175623
 H         2.1290668112        1.8294244839        4.7300253164
 H         1.1011660488        1.2618555631        3.3295610756
 H         5.5885492168       -0.3687937227        0.3651229857
 H         4.0754913363        0.5814505376       -0.2365090471
 H         8.6327286982       -2.4311074796       -1.6357861402
 H         8.1171376753       -2.0390832039       -3.4352630630
 H         6.1447111090       -4.1993743129       -1.7174100221
 H         4.6605479983       -3.9446479467       -0.9904887984
 H         6.2800906994       -3.4536733324       -0.1492168255
 H         6.1259032274       -3.0272579784       -3.7743743339
 H         4.4324224276       -3.2216444817       -3.2905143532
 H         5.2178857183       -1.7362177210       -3.9179427603
 H         9.1211386419       -0.2002567292       -1.2712970575
 H        10.1341141747       -0.9660838231       -2.6292569559
 H         8.8178769380        1.1092291960       -0.0809612692
 H         8.9250135017        2.8681543762        0.2208562095
 H         7.2775309422        2.0116604439        0.0589130885
 H        11.1426538509        2.2082201211       -3.4559575824
 H        10.7611243486        1.8949229275       -1.7091286479
 H        10.6361584605        3.4640563510       -2.2902571983
 H         8.3800103908        3.9127030817       -3.8365304759
 H         9.2714301055        2.8181552663       -4.8940149953
 H         7.5099253815        2.6665513678       -4.4898759628
 Na        1.2190219455       -0.2647275024       -0.8995808397
