155

 C        -6.1148065519       -7.0372331280       -1.4902920940
 C        -7.4444640135       -7.0111591341       -0.7434145708
 C        -8.7855266331       -6.7477761642       -1.5008192487
 C        -8.5598696273       -5.2538999255       -1.9453046584
 C        -8.3470919813       -4.1487848274       -0.9727816368
 C        -8.8999277836       -7.6652033800       -2.6752639120
 C        -9.9747267237       -6.8466186447       -0.5022523295
 O        -7.4735923501       -7.2297858634        0.4418365316
 O        -8.7808656333       -4.8186447226       -3.0637761238
 C        -8.1901885294       -2.6928538480       -1.5410704889
 C        -7.6042472557       -1.8016020215       -0.4958017490
 C        -7.8377880939       -0.2153447747       -0.5653140237
 C        -6.5070594907        0.3761592462       -0.3138424076
 C        -6.2836099369        1.2030836068        1.0423442634
 O        -6.9723210240       -2.2856115513        0.4337140464
 O        -5.6480642980        0.1202238539       -1.0965553578
 C        -8.1498739489        0.1665433093       -2.1206504060
 C        -8.9684564623        0.1885135922        0.3233748317
 C        -4.8553077741        1.1801117115        1.6483616280
 C        -4.8253797368       -0.0375527079        2.6136395495
 C        -3.7399955075       -1.2568100352        2.5310512621
 C        -3.1448590918       -1.4089081249        1.0198120305
 C        -3.1632276862       -2.7825069812        0.3382031048
 C        -2.6303627147       -0.8968819466        3.6721954380
 C        -4.4567483749       -2.5785435373        2.9676156807
 O        -5.6198814479       -0.1306616662        3.5490502671
 O        -2.6580348986       -0.4698079231        0.4560761752
 C        -2.7001887259       -2.6111603103       -1.1747487449
 C        -1.3906672705       -1.7341117843       -1.2734544752
 C        -1.2721495310       -0.8581374724       -2.5559003482
 C        -0.4381656914        0.3595505839       -2.0869454742
 C        -1.0573495543        1.4555824411       -1.1864006524
 O        -0.4828300884       -1.9991811686       -0.5323162840
 O         0.7297843770        0.4493151768       -2.2802545040
 C        -0.4729383369       -1.8021112808       -3.5959586822
 C        -2.6580968620       -0.4110770310       -3.1978994655
 C        -0.1504599861        2.7493959242       -1.2589489150
 C         1.2240732722        2.7879125134       -0.6183546984
 C         2.1957639948        3.9582740054       -0.6173051113
 C         2.8455536523        4.2992690008        0.8941576341
 C         3.7649092248        3.2501180788        1.5022302668
 C         3.1961822036        3.6308620620       -1.7836448916
 C         1.6095863742        5.3414758675       -1.0615292436
 O         1.7380394531        1.7713658181       -0.1225168141
 O         2.5516729267        5.4060131203        1.3121582298
 C         3.3065110308        2.8917418229        2.8849147881
 C         4.1437173066        1.6949951241        3.4935900925
 C         3.5147394509        0.3352212829        4.0549205951
 C         2.5086751357       -0.2024061638        2.9856780640
 C         2.7386717536       -1.6406561652        2.4393639754
 O         5.3725271957        1.8283641108        3.5248097211
 O         1.4997116499        0.4154962305        2.7065457203
 C         4.6255633921       -0.5401110376        4.7369783402
 C         2.6358600549        0.8391727214        5.2373445422
 C         3.9379954991       -1.7988096049        1.5165353594
 C         3.6732730275       -1.6647690617       -0.0061530848
 C         4.8952266625       -1.3927421594       -1.0058654838
 C         5.4908579259       -0.0473011096       -0.8035164625
 C         6.0789575219        0.8130678279       -1.8872326928
 C         6.1257337821       -2.3288849959       -0.6316568856
 C         4.5174371819       -1.6519847498       -2.5230330736
 O         2.5218952807       -1.9086280602       -0.3457468533
 O         5.6336138476        0.3873954274        0.3455787326
 C         6.8313808307        1.9973478823       -1.3491935348
 C         7.0853742985        3.0688037625       -2.4770893547
 C         8.4321689031        3.8737101111       -2.4820299857
 C         9.0174927397        4.2871318921       -1.0858075549
 C         9.8834941252        5.6097376787       -1.1708683418
 O         6.2078158829        3.2024222379       -3.3263257908
 O         8.8492635877        3.6738676163       -0.0546625407
 C         9.5436775917        2.9365914211       -3.0483879285
 C         8.2687738158        5.0524332183       -3.4443755467
 H        -5.3225302156       -7.4107307116       -0.8813790438
 H        -6.3260539610       -7.7686523154       -2.2975661950
 H        -5.8053993312       -6.0579085331       -1.9825137696
 H        -9.2338917904       -4.1124555022       -0.3624840943
 H        -7.5982872108       -4.3726172950       -0.2536870175
 H        -9.6937220807       -7.4427283768       -3.3736807365
 H        -9.1741495891       -8.6856768923       -2.3665020229
 H        -7.9460617460       -7.7106795311       -3.2911751159
 H       -10.0562451355       -7.7383039359       -0.0171091814
 H        -9.9807257097       -5.9850364014        0.1556862131
 H       -10.9895595388       -6.6840456540       -1.0299849555
 H        -7.4729162107       -2.7420789999       -2.4120466319
 H        -9.1820868091       -2.4130008329       -1.9398727853
 H        -6.5461501276        2.2898914861        0.8414997806
 H        -6.9919183880        0.8517060035        1.8781544542
 H        -9.0740142984       -0.1774014203       -2.4775177440
 H        -7.4422832623       -0.2463125505       -2.8153195461
 H        -8.1302320492        1.2312042193       -2.2775618500
 H        -8.6744312208        0.0541450234        1.4257851885
 H        -9.1741778246        1.2959107441        0.0849197832
 H        -9.8041946415       -0.5761041469        0.2741342432
 H        -4.7066495611        2.0486806222        2.3481202176
 H        -4.0255766037        1.1543253254        0.9968110414
 H        -2.4829471199       -3.4844135048        0.7732156033
 H        -4.1121982918       -3.2652941121        0.2309626100
 H        -2.1907340994       -1.8226135434        4.2123653149
 H        -3.1551672310       -0.2971969933        4.4649872320
 H        -1.8162350821       -0.2152240491        3.3167890838
 H        -3.7667177790       -3.4253390163        3.0609603721
 H        -4.7881306405       -2.4360027405        4.0105107119
 H        -5.3380216526       -2.8166481591        2.3206902878
 H        -2.6679656368       -3.6687888108       -1.6128382228
 H        -3.5951326821       -2.0769088054       -1.5519386596
 H        -2.0655074080        1.7365392932       -1.4899425396
 H        -1.1411630840        0.9883515631       -0.1904984243
 H         0.2303787416       -2.5580096593       -3.1979136848
 H        -0.0106588583       -1.2424150950       -4.3911704745
 H        -1.2371193889       -2.3769185786       -4.0767054041
 H        -2.4631304839        0.2660083167       -4.0023577063
 H        -3.3662501789       -1.1966007489       -3.5707303471
 H        -3.2641557639        0.2182556360       -2.5446742812
 H        -0.7334231616        3.6958311847       -1.0248712037
 H         0.0658591647        2.7670591580       -2.3846651389
 H         4.0078747079        2.4308861270        0.7482313562
 H         4.7858769665        3.7782729600        1.5835048044
 H         3.6325546870        2.6079717963       -1.6026766675
 H         3.9157205039        4.4555313854       -1.8771491737
 H         2.6651810552        3.5321141541       -2.6671365090
 H         1.3184958043        5.2073026633       -2.1249911088
 H         0.6290365028        5.7078087303       -0.5717906729
 H         2.3553285660        6.2012228829       -1.1519499466
 H         3.3279445612        3.7446673484        3.5615279920
 H         2.2320076997        2.5253476199        2.9013709370
 H         3.0575017176       -2.2672391761        3.3223421939
 H         1.8006759214       -2.0126908210        2.0267220335
 H         5.0963442650        0.1451045886        5.3508565973
 H         5.2703176361       -0.8525448911        3.9308589842
 H         4.2164142524       -1.3250342476        5.3461695932
 H         2.0461405920        0.0568550397        5.7459506767
 H         3.2805634951        1.2476419453        6.0516964956
 H         1.8355069139        1.5764836234        5.1581567624
 H         4.2026998605       -2.8151726365        1.5737458554
 H         4.6270457654       -1.0468219158        1.9654770523
 H         6.8184216435        0.2165527106       -2.4596831935
 H         5.2529538621        1.1652759333       -2.5622236531
 H         7.0490298502       -2.1244786095       -1.2178452925
 H         5.8780919567       -3.4035281578       -0.7505934823
 H         6.2724141044       -2.0197238699        0.4404695477
 H         5.2164343853       -1.1771113452       -3.1282561989
 H         4.6359669620       -2.6805916425       -2.8888260247
 H         3.4202940987       -1.4706297507       -2.5301281233
 H         6.1200916120        2.4356990199       -0.6043922565
 H         7.7382654686        1.5560078142       -0.9186581522
 H        10.3723215532        5.6834276349       -0.1877357030
 H        10.6605779033        5.3946278340       -1.9121328295
 H         9.3075896741        6.5588320703       -1.2361293223
 H         9.4530126155        2.8964956220       -4.0991050360
 H         9.5941828108        1.8998128363       -2.6431322901
 H        10.5866007447        3.3228498791       -2.8238283336
 H         9.2508788025        5.4409897784       -3.7224445588
 H         7.7041180417        4.8388179200       -4.3871726038
 H         7.6281409585        5.8363307140       -3.0164736137
 Na        0.8644893395       -0.5481305453        0.4127982135
