155

 C        -5.9399104673       -6.7469689942       -2.3904443720
 C        -7.1631897656       -6.9648424871       -1.3521619053
 C        -8.6009926907       -6.6993398319       -2.0149520876
 C        -8.8849236008       -5.1232276723       -2.2008933128
 C        -8.1584746467       -4.1642850363       -1.2786778687
 C        -8.7265627431       -7.4104847714       -3.3835625029
 C        -9.7223522945       -7.1739785427       -1.0574575259
 O        -7.0112001225       -7.3209184694       -0.2257408839
 O        -9.4573724933       -4.7426819723       -3.2122695261
 C        -8.3386020339       -2.6688442382       -1.3668751747
 C        -7.2392331861       -1.9412320200       -0.5621355784
 C        -7.5345886004       -0.2822146069       -0.4434825924
 C        -6.1832079749        0.4455060311       -0.2636251592
 C        -5.7935491888        1.4491828916        0.8517052211
 O        -6.5242817216       -2.5106973317        0.2017898472
 O        -5.3539353218        0.1716267337       -1.1433168539
 C        -8.1969821692        0.2617084548       -1.7656888932
 C        -8.5774450442       -0.1432058069        0.7071526478
 C        -4.5245843568        1.0721294453        1.5812052005
 C        -4.6969135746       -0.2087890437        2.4422067074
 C        -3.5366086250       -1.2508772634        2.4976263079
 C        -2.9815334600       -1.4720289721        1.0943681938
 C        -3.5270523956       -2.6239267745        0.3135544987
 C        -2.4218957008       -0.7273515300        3.4994593059
 C        -4.1743259973       -2.5006028784        3.1022249213
 O        -5.6914109236       -0.2934878734        3.1742518107
 O        -2.2025738778       -0.6299160513        0.5280030737
 C        -2.7062478417       -3.0476435888       -1.0042289344
 C        -1.4611631683       -2.1290100180       -1.2143058011
 C        -1.3356418281       -1.0355337115       -2.4172298944
 C        -0.4262468132        0.0883531034       -2.0774442539
 C        -0.8961083641        1.5155413111       -1.7966688584
 O        -0.4406538129       -2.4124033818       -0.5770505810
 O         0.8004430452       -0.1588042894       -2.0852201220
 C        -0.4692310328       -1.9742923009       -3.4212252153
 C        -2.5936503581       -0.5323081010       -3.0993438134
 C         0.1740329706        2.6084726050       -1.8114688673
 C         0.8690436654        2.9355831699       -0.5161971616
 C         1.8212257765        4.1436652843       -0.4488374328
 C         2.4963601158        4.3197288463        1.0928742241
 C         3.5482709815        3.2208261748        1.5551684785
 C         2.9321787191        3.6970068792       -1.4974516161
 C         1.0159239212        5.4511033575       -0.7196314950
 O         0.7587713402        2.1578186751        0.4214718765
 O         2.3353920437        5.3112522031        1.7692595720
 C         2.9449344776        2.3355434112        2.7244426165
 C         3.8807056241        1.2642017355        3.3688568550
 C         3.1351716045        0.1114375339        4.2726601690
 C         2.6244717806       -0.7819735323        3.1582495074
 C         3.4035797830       -2.0206911734        2.7948102496
 O         5.1083407707        1.2181332867        3.2520365600
 O         1.5515520913       -0.4650564839        2.6025830499
 C         4.1392588675       -0.6021831432        5.2008739250
 C         2.0726478329        0.6909570583        5.1223431557
 C         4.4421076347       -1.9355986416        1.6928572467
 C         3.8951327324       -1.5225022970        0.3463965019
 C         4.9707709814       -1.1973723123       -0.7379437440
 C         5.5355495665        0.3188565476       -0.5282626598
 C         6.4660817869        0.8648317595       -1.6594630689
 C         6.2679817012       -2.1045605736       -0.6928890709
 C         4.3007987536       -1.3030390460       -2.1148191177
 O         2.7208630295       -1.5148388710        0.0762173550
 O         5.2759533328        0.9889592794        0.4643575992
 C         7.2619617587        2.0747270335       -1.1886329166
 C         7.1247886941        3.2851336512       -2.2408517516
 C         8.3367588723        4.2042451780       -2.6128665239
 C         8.9552844725        4.8468396913       -1.2865292483
 C         9.3369811536        6.3135469009       -1.3000154878
 O         6.0462381121        3.6292302602       -2.7079131479
 O         9.2638669944        4.1729466636       -0.3029927109
 C         9.4870086883        3.3126197257       -3.2089320219
 C         7.8649892989        5.2604177545       -3.5999919891
 H        -5.0985418648       -6.1237527613       -2.0246336151
 H        -5.4790902271       -7.6826383534       -2.6804104029
 H        -6.3257800075       -6.1571877467       -3.1840570589
 H        -8.3518526454       -4.3728204623       -0.2352800912
 H        -7.0999358652       -4.3321504068       -1.4688894141
 H        -9.8124709956       -7.5255080560       -3.6604029869
 H        -8.2849407428       -8.3690436915       -3.5311567107
 H        -8.2974258295       -6.7953897765       -4.1973676595
 H        -9.5561922991       -8.2306008971       -0.8702975666
 H        -9.6017241106       -6.8105606802       -0.0107235569
 H       -10.7966798972       -6.9520398833       -1.3142385216
 H        -8.2277409014       -2.3292032062       -2.4238860523
 H        -9.3679273060       -2.3792312839       -0.9877164247
 H        -5.5091893069        2.4364037136        0.3006726437
 H        -6.6771272601        1.6231115723        1.4611977558
 H        -9.1966538320       -0.0534114346       -1.8812080565
 H        -7.6861275675        0.2518796847       -2.7735692546
 H        -8.4125468216        1.2848197964       -1.5583208648
 H        -8.1255481110       -0.5857479103        1.6017566218
 H        -8.8020298603        0.9590800269        0.8362699747
 H        -9.6592985153       -0.4321252272        0.4393435282
 H        -4.1228070898        1.8855577160        2.2049128527
 H        -3.6524209164        0.9167276407        0.8772749546
 H        -3.4533430824       -3.5354198098        0.8580041556
 H        -4.5357145924       -2.3028360165        0.0649439095
 H        -1.8065435905       -1.4534781132        4.0227211792
 H        -2.9191416357       -0.0705285511        4.1999030000
 H        -1.5929894214       -0.1996536869        2.9936934414
 H        -3.4645199453       -3.3580745519        3.2530248875
 H        -4.6220159697       -2.1509175431        4.0080370132
 H        -4.9928352487       -2.8949594443        2.4357362742
 H        -2.3903042921       -4.1119531341       -0.9009259295
 H        -3.4745997790       -3.0326054545       -1.8359529157
 H        -1.6345810512        1.8209964240       -2.5255510281
 H        -1.4007280946        1.5383342930       -0.8229739956
 H         0.4131299732       -2.2616546594       -2.9172313625
 H        -0.2295729756       -1.4576640508       -4.3514123414
 H        -0.9937833325       -2.8999865387       -3.7015834156
 H        -2.3789847306        0.1283391641       -3.9751795314
 H        -3.0571074609       -1.4132009931       -3.4604656858
 H        -3.2925436024        0.0647040056       -2.5075392933
 H        -0.3568898050        3.4701319428       -2.1947930244
 H         0.8785959926        2.4465145232       -2.6138754873
 H         3.9991220211        2.6643648730        0.7249012159
 H         4.3904183156        3.9002546708        1.8959343403
 H         3.1966682903        2.6959991065       -1.4410428102
 H         3.7616718984        4.3760106260       -1.4254714238
 H         2.4639551151        3.9870089894       -2.4705698949
 H         0.4945566330        5.5577558740       -1.6680735481
 H         0.1822456595        5.5029960731        0.0701946594
 H         1.4879436050        6.3073905958       -0.3294054257
 H         2.6196406949        3.0685651330        3.5119480390
 H         2.0437071378        1.8186532247        2.3693670983
 H         3.9300289878       -2.3848840708        3.6237411492
 H         2.7803021510       -2.8696410269        2.5332801667
 H         4.6383007604        0.0399936980        5.9061528053
 H         4.9199615406       -1.0204666016        4.6394346378
 H         3.4996290114       -1.2226782321        5.7836337116
 H         1.5945672906        0.1101980617        5.9166091375
 H         2.5711099164        1.3983663355        5.7967363608
 H         1.2521513851        1.1917706310        4.6376646467
 H         4.7600268080       -3.0228078689        1.5067675127
 H         5.3127700952       -1.2825105307        1.9151010651
 H         7.1639700325        0.1847959650       -2.1220039059
 H         5.6866143475        1.2418645689       -2.3387444010
 H         6.2892707940       -2.7660277376        0.1879172496
 H         7.1819557267       -1.5611147746       -0.9722212008
 H         6.2346841244       -2.7067210820       -1.5966609379
 H         5.0410831774       -1.0734417566       -2.8864776437
 H         4.0731620931       -2.4096921189       -2.2244579605
 H         3.3499716025       -0.6302390859       -2.1426206102
 H         6.9033182678        2.5128015457       -0.2740718738
 H         8.3304883734        1.8717686708       -1.1757898079
 H         9.8162121438        6.5703240669       -0.3374761753
 H        10.0195180640        6.5193555529       -2.1606910421
 H         8.4708000669        6.9988152049       -1.5606214748
 H         9.3674920840        2.9469114842       -4.2512518211
 H         9.6399169078        2.4332398421       -2.6180918617
 H        10.4234502713        3.7703250027       -3.2826762157
 H         8.6794803434        5.8323061796       -3.9349081412
 H         7.4116463670        4.8826210149       -4.5154300714
 H         7.2623253965        5.9796140796       -3.0912294009
 Na        0.4521174234       -0.4801847927        0.6854432600
