155

 C        -5.9819850012       -6.8618707441       -3.4814446600
 C        -7.0085813320       -6.8456804169       -2.2696434741
 C        -8.4169514053       -6.4084342139       -2.5683848991
 C        -8.7036472562       -4.8898245222       -2.3371304709
 C        -8.0959411446       -4.3191436225       -1.0662271391
 C        -8.9715196521       -6.8528917506       -3.9314256821
 C        -9.2413260581       -7.1849558473       -1.4434970654
 O        -6.4951209769       -7.0146640388       -1.1640678916
 O        -9.3724774798       -4.2871839031       -3.1814069308
 C        -8.4583232450       -2.8067574356       -1.0451312803
 C        -7.2812057904       -1.9727063795       -0.5345556350
 C        -7.5704405348       -0.4164898599       -0.2879617694
 C        -6.2189111507        0.2884430374       -0.2142956072
 C        -5.8518706221        1.5879664397        0.6961022484
 O        -6.2187343005       -2.5123146253       -0.2926039367
 O        -5.3585726431       -0.1770874466       -0.9328634962
 C        -8.2381346866        0.2613214922       -1.5801952146
 C        -8.2991799836       -0.2411451568        1.0304748226
 C        -4.5990931625        1.2777889292        1.5672708140
 C        -4.6334165009       -0.1959501474        2.1514129041
 C        -3.2655482875       -1.0194055702        2.4736955575
 C        -2.5271892214       -1.2289843192        1.1234477870
 C        -3.0976216729       -2.3128488366        0.2534356065
 C        -2.4110726000       -0.0825218776        3.3249105660
 C        -3.3791603374       -2.4072416768        3.2072238148
 O        -5.7169334644       -0.7236931765        2.3951520332
 O        -1.5912957457       -0.5584576246        0.8421210884
 C        -2.0970453768       -3.0791768665       -0.5972078877
 C        -0.8501936575       -2.3357209346       -1.1782339299
 C        -1.1144874455       -1.3254108599       -2.3814148297
 C        -0.2649208855       -0.0764531094       -2.1356348944
 C        -1.0435263200        1.2309098317       -1.8751288335
 O         0.3166365127       -2.5171893991       -0.7776410084
 O         0.9328454668       -0.1687233107       -1.9408208463
 C        -0.6357402102       -2.1766791078       -3.6484658980
 C        -2.6364217976       -0.9845316986       -2.6216608070
 C        -0.0069197919        2.3766001744       -1.8357839446
 C         0.6913687498        2.5699544596       -0.4349747121
 C         1.4046168180        3.9665965329       -0.1732198488
 C         1.8879412806        3.8298065311        1.2687819550
 C         2.8576756012        2.6970250716        1.7013962747
 C         2.5808185321        4.1570749876       -1.2947965472
 C         0.5058076441        5.2053573869       -0.4562556972
 O         0.6051647356        1.6891316437        0.4078225485
 O         1.3498316154        4.6126784985        1.9804199018
 C         2.3434218157        2.0207983303        2.9703514127
 C         3.2880558059        1.0399500511        3.6018579747
 C         2.8042291256       -0.2183002217        4.4827255387
 C         2.4429350754       -1.1979372027        3.3838476233
 C         3.5073742130       -2.1556475697        2.8077539866
 O         4.5132037614        1.1732343175        3.4596550992
 O         1.3072352025       -1.1584156844        2.9130224234
 C         3.8368099769       -0.7075715082        5.4785158289
 C         1.6056681119        0.2507132286        5.3186286597
 C         4.6794008266       -1.5531487298        2.0193842109
 C         4.2418698992       -0.9855576804        0.6601751032
 C         5.1455746637       -0.9890484649       -0.6478348699
 C         5.7327889842        0.4449233710       -0.6822252537
 C         6.2166753146        1.1814720121       -1.9703887527
 C         6.3848092457       -1.9429389954       -0.7377036071
 C         4.1693885293       -1.0987627635       -1.9037284041
 O         3.1471229210       -0.4188787366        0.5143228491
 O         5.6530755060        1.0571393913        0.3632886433
 C         7.4199275944        2.0718443452       -1.6659636733
 C         7.1201689733        3.4842961666       -2.0383095578
 C         8.2370050634        4.4153444761       -2.6203524545
 C         8.8029492851        5.2744297985       -1.3665010142
 C         8.5460368033        6.7370087960       -1.3601707056
 O         6.0346003004        3.9523773847       -1.7664747570
 O         9.3554810984        4.5712738811       -0.4977599673
 C         9.3939883353        3.5931695401       -3.1981510181
 C         7.6335579350        5.2868869413       -3.7552765803
 H        -5.0127932747       -6.9398985838       -2.9411862510
 H        -6.0384063516       -7.6847702597       -4.2226534805
 H        -5.9354046493       -5.9908314707       -4.1290781580
 H        -8.5520700111       -4.8961439962       -0.2090445490
 H        -6.9793045090       -4.5547439913       -0.9084710769
 H       -10.0125970639       -6.5931296463       -4.1833221728
 H        -8.9090355303       -7.9840985705       -3.9029048586
 H        -8.3518835805       -6.4814878510       -4.7161163982
 H        -9.5180286721       -8.2707313316       -1.7165731059
 H        -8.7242605021       -7.1407412782       -0.4527207535
 H       -10.2279963452       -6.8805516054       -1.4352245857
 H        -8.8389985751       -2.5052806876       -2.0363704369
 H        -9.3191666156       -2.7213352043       -0.4222704929
 H        -5.6392598579        2.3961374212        0.0651975876
 H        -6.6950416114        1.9085924756        1.2289782043
 H        -9.2244650654       -0.2286730686       -1.7779942192
 H        -7.7317538735        0.0882399689       -2.5648413778
 H        -8.1811056696        1.3470952721       -1.5024192735
 H        -7.8345140225       -0.9084725752        1.6679847591
 H        -8.1419924253        0.7073733344        1.5094987342
 H        -9.3147785092       -0.6030126689        0.9851919604
 H        -4.4594068031        2.0100872358        2.3918453856
 H        -3.6635330707        1.3628226641        0.9890540792
 H        -3.6056617219       -3.0581695687        0.9294655482
 H        -3.9002829280       -1.8319296603       -0.4248830477
 H        -1.4137541724       -0.4010045178        3.3918689193
 H        -2.6749083438       -0.0788736199        4.3650078776
 H        -2.5613627896        0.9336308502        3.0963581450
 H        -2.3671997443       -2.8371781268        3.2883835033
 H        -3.8640457556       -2.3044694557        4.2362792336
 H        -4.0694044855       -2.9689269552        2.6177336849
 H        -1.6910869305       -3.8645046903        0.0115543471
 H        -2.5003059007       -3.5458335857       -1.4475599637
 H        -1.8241361835        1.2981703215       -2.6844429021
 H        -1.5336374556        1.1449664327       -0.9175504428
 H         0.4092132006       -2.4473673198       -3.5671139799
 H        -0.7628865141       -1.5803148008       -4.5447397405
 H        -1.2723846792       -3.0450227601       -3.7197579953
 H        -2.7192470986       -0.6418686227       -3.6226230453
 H        -3.2337038750       -1.8944191727       -2.5608746409
 H        -3.0852031430       -0.3659075845       -1.8555098454
 H        -0.4398238931        3.3135991597       -2.1456129829
 H         0.6395515351        2.1564690272       -2.6459822257
 H         2.6835072827        1.8914847861        1.0390885145
 H         3.8733625387        2.9485521272        1.7270416531
 H         3.2924932809        3.3761211479       -1.1295302617
 H         3.1235948787        5.0633167926       -1.1367442387
 H         2.1641008566        4.0644240571       -2.3189258266
 H         0.6176637903        5.5976030662       -1.4616075763
 H        -0.5257553645        4.9939796422       -0.3315414107
 H         0.7902157084        5.9933081708        0.2024988629
 H         2.0521419284        2.6308593860        3.8458237307
 H         1.4028649496        1.4951358574        2.7208634173
 H         3.9515858559       -2.6628820256        3.6616988834
 H         3.0507880144       -2.8911871152        2.1719973058
 H         3.8009457139       -1.7810669186        5.6629031366
 H         3.5026159071       -0.2927848578        6.4006832237
 H         4.7655078119       -0.2205518910        5.3092832139
 H         1.1345559055       -0.5212084945        5.8509058973
 H         1.7788820791        1.1586197197        5.8247044918
 H         0.8617568780        0.6996294254        4.6329803132
 H         5.5167839095       -2.2259102474        1.7473523812
 H         5.1835663401       -0.7275377279        2.5730327679
 H         6.5973734473        0.4834872697       -2.7222507898
 H         5.3231094559        1.6036152246       -2.3763967651
 H         6.2815809712       -2.7580958436       -1.4763921661
 H         6.6036600254       -2.4902659329        0.1874342062
 H         7.2718441671       -1.4082161760       -1.0751912449
 H         4.8048950473       -1.2377440866       -2.8361587404
 H         3.3037531717       -1.7122503499       -1.6546354950
 H         3.8818583772       -0.1132269411       -2.2273808219
 H         7.7253935944        2.1547751133       -0.6367147442
 H         8.3363224382        1.7287647602       -2.1155953335
 H         8.9215578536        7.3651752027       -0.5333403641
 H         8.9593468619        7.2154543648       -2.2995370421
 H         7.4961842029        6.8519084517       -1.6787098939
 H         9.2473702529        2.9759180651       -4.0604797430
 H         9.8510495923        2.9546639320       -2.5189860963
 H        10.2088133944        4.2198878980       -3.4392416334
 H         8.3327332245        6.0131931425       -4.1199925404
 H         7.2494867753        4.7352788276       -4.5233188237
 H         6.7658062143        5.7231358494       -3.3356924846
 Na        0.8822259246       -0.7375017591        0.6086166646
