155

 C        -6.5209011886       -6.8940103501       -5.0606306477
 C        -6.7743510143       -6.5109861819       -3.6306093164
 C        -8.2748040792       -6.2481520722       -3.1281714051
 C        -8.3588335155       -4.6803358831       -2.7349824618
 C        -8.0356497533       -4.3618744567       -1.3004628138
 C        -9.2791486820       -6.4372363779       -4.1533612790
 C        -8.5844658834       -7.1256260344       -1.7826273466
 O        -5.9076539572       -6.3574213196       -2.7935298355
 O        -8.5643885729       -3.8686454204       -3.6074247086
 C        -8.5236085890       -2.9625972390       -0.9850571201
 C        -7.3686560624       -2.0333894752       -0.6934221403
 C        -7.6240484590       -0.5680178825       -0.2577491454
 C        -6.1918049165        0.1220671552       -0.0892418503
 C        -6.0287509330        1.0923034210        1.0657330536
 O        -6.2434670516       -2.4299398302       -0.6072694089
 O        -5.2823211773        0.0254434197       -0.9319459823
 C        -8.4324191400        0.2006472804       -1.3505061189
 C        -8.5048187357       -0.7916697358        0.9904782111
 C        -4.5830584509        1.0876049499        1.5147879878
 C        -4.1679845031       -0.3175701491        1.9946402425
 C        -2.6145117647       -0.6362403726        2.4510206029
 C        -2.1268757666       -1.3821845895        1.2064570446
 C        -2.3798145706       -2.8334241769        1.0942810514
 C        -1.7571393457        0.5555330980        2.8799966818
 C        -2.5998814909       -1.6201044209        3.6738721459
 O        -4.9181476852       -1.2560669331        2.1063716963
 O        -1.3955720566       -0.8735163715        0.3794281523
 C        -2.2184214354       -3.2583278062       -0.3718605506
 C        -0.9843800879       -2.5235110677       -0.9189757326
 C        -1.0140416845       -1.6812295572       -2.2508511471
 C        -0.1102718428       -0.4982186416       -2.0354422479
 C        -0.9005595278        0.8589933653       -1.8360045679
 O         0.1590507187       -2.6809079102       -0.3106345680
 O         1.1246966951       -0.6491892564       -2.0815733163
 C        -0.2986326705       -2.5953807505       -3.3298243581
 C        -2.4653216440       -1.2629580370       -2.7136650127
 C         0.1020639014        2.0337379029       -1.8035250156
 C         0.3952003562        2.3457971758       -0.3771979549
 C         0.9111795913        3.6783952698        0.1806724860
 C         0.8483062091        3.4844912372        1.7074304077
 C         2.0988699350        2.8290679458        2.3921108229
 C         2.3161578980        4.0769255501       -0.3190465547
 C        -0.1198788317        4.7553692197       -0.2842739379
 O         0.1423335978        1.4514846992        0.4504263526
 O        -0.0495187259        3.9409844937        2.3767507608
 C         1.6589137145        1.8280182522        3.5533545498
 C         2.7903906533        1.1176366791        4.2360485025
 C         2.4882017266       -0.5195397673        4.6327112522
 C         2.2971622856       -1.3251046767        3.2478216986
 C         3.2742631699       -2.2768312533        2.6746594323
 O         3.9053217631        1.4615902990        4.4709577441
 O         1.1869515728       -1.1738140849        2.7245562679
 C         3.8310982808       -1.0607542860        5.3516865718
 C         1.1670153229       -0.7694132897        5.4694629266
 C         4.5072745267       -1.5592906266        1.9551212249
 C         4.3704995475       -0.6880059174        0.7068935233
 C         5.4213803203       -0.6335447402       -0.4900475303
 C         6.2257481281        0.7109378847       -0.4340923061
 C         6.5737242707        1.4260078408       -1.7610815744
 C         6.4078046616       -1.8247572749       -0.4594969970
 C         4.5777949991       -0.6367550018       -1.7444728977
 O         3.5279490514        0.2162148831        0.7235280780
 O         6.6771783580        1.0104936273        0.6385894085
 C         7.4183973007        2.6444188244       -1.5151459308
 C         6.9850151421        3.7797343339       -2.4625439792
 C         8.0504623995        4.9350542283       -2.7900327224
 C         8.4396048848        5.6385384859       -1.4407839489
 C         7.3970197415        6.5166642250       -0.7072647463
 O         5.8450326742        3.9682491334       -2.8078948086
 O         9.5062293684        5.4942087821       -0.9295493565
 C         9.2885780905        4.2970427127       -3.3471516305
 C         7.4065642567        5.9731639432       -3.8047255873
 H        -5.5383771751       -7.3160708914       -5.3224061639
 H        -7.2999877737       -7.5460311446       -5.4264762451
 H        -6.7353151968       -6.0690738336       -5.6917220219
 H        -8.5367142080       -5.0409294010       -0.7017941558
 H        -7.0109919809       -4.4847558550       -1.0483667093
 H       -10.3073710150       -6.1968833616       -3.8197457931
 H        -9.2050987481       -7.3809123004       -4.6201852532
 H        -8.9631255351       -5.7266820520       -4.8826831628
 H        -8.4603090319       -8.1162078841       -2.0666340474
 H        -7.8976580645       -7.0866613729       -0.9629402725
 H        -9.6062721780       -6.8670605056       -1.4013802864
 H        -9.0756438899       -2.5750635981       -1.9062598491
 H        -9.3029849960       -3.0160411380       -0.2403369527
 H        -6.4061649562        2.1268132822        0.7770731119
 H        -6.6098956652        0.6175863262        1.8401492741
 H        -9.3750174541        0.4954922864       -1.0723780735
 H        -8.4075794785       -0.3290612621       -2.3193928965
 H        -8.0082684316        1.1424060807       -1.5133494886
 H        -8.0168317793       -1.5810452881        1.6981055143
 H        -8.6413740622        0.1113252601        1.6704280707
 H        -9.5407846277       -1.1150713142        0.6749577125
 H        -4.4670225568        1.8113468738        2.3200459140
 H        -3.9153096649        1.2358071764        0.6199539689
 H        -1.6276133023       -3.2772948399        1.7077191463
 H        -3.2145817328       -3.2740935780        1.6408327624
 H        -0.8271486057        0.3153680063        3.3558679947
 H        -2.3639917590        1.1792690399        3.5563304660
 H        -1.3258855686        1.1935944093        2.0885560593
 H        -1.5402944173       -1.8026910365        3.8625232463
 H        -3.0383734756       -1.0734552376        4.4716900733
 H        -3.0613524690       -2.5844100670        3.5023759110
 H        -2.0422684645       -4.3909730614       -0.4106680992
 H        -3.1697419097       -3.0170247972       -0.9008525028
 H        -1.6473954876        0.9455749551       -2.6907441596
 H        -1.4569568541        0.7951886633       -0.9266446214
 H         0.6808000971       -2.6900242835       -2.9330369142
 H        -0.2490045991       -1.9472682824       -4.2192370473
 H        -0.7279851114       -3.5894585384       -3.5530491173
 H        -2.4339300367       -0.8557664856       -3.7459903784
 H        -3.0114398856       -2.1838421837       -2.6417077988
 H        -2.9161722351       -0.4700196276       -2.0995309422
 H        -0.4496284532        2.8185829719       -2.3227273953
 H         0.9381129404        1.8259465612       -2.4440120145
 H         2.7938705312        2.3010123228        1.7059692319
 H         2.8030199693        3.6529878082        2.7633066523
 H         2.9129608823        3.2022907662       -0.4735067911
 H         2.8037324849        4.8740468503        0.2192969166
 H         2.1906433751        4.6177705214       -1.3271045911
 H        -0.1670994510        4.8253519050       -1.4103868812
 H        -1.0979639315        4.4383994229        0.2654143967
 H         0.0578767839        5.6471124455        0.2949237376
 H         1.1134072489        2.3876003269        4.3969116603
 H         0.9404354725        1.1608072529        3.1151000455
 H         3.6687421687       -2.9639891396        3.4218702784
 H         2.7071431973       -2.8515249103        1.9375630239
 H         3.6944428247       -1.0283866474        6.4815704688
 H         4.7781175933       -0.5643290989        5.0888498541
 H         4.0379642016       -2.1166958664        5.0939359613
 H         1.0943547434       -1.7647886784        5.9245199101
 H         1.2429031980       -0.2553142848        6.4197263915
 H         0.2871758525       -0.6497807430        4.8339160522
 H         5.4996368057       -2.2194686441        1.7979843631
 H         4.8641776638       -0.8197859164        2.6916056036
 H         6.9372694915        0.6357972889       -2.4878045893
 H         5.6315411838        1.7630842630       -2.2461587319
 H         6.0252893171       -2.8375698472       -0.3826292814
 H         7.1146402445       -1.6554475617        0.3599603164
 H         7.1413738093       -1.7738091491       -1.2095833795
 H         4.9714355588       -1.1424369932       -2.5175802141
 H         3.6340158263       -1.2141377106       -1.6803338615
 H         4.1079074515        0.3553719667       -1.8976600229
 H         7.2411671213        3.0701461903       -0.5287566546
 H         8.4975535987        2.4928808589       -1.4384874945
 H         7.5411989151        6.6004153175        0.3344678861
 H         7.4253610233        7.5348099785       -1.0759850672
 H         6.3800200848        6.2127034606       -0.6120958376
 H         9.2174395007        3.5965471390       -4.2789679432
 H         9.7542276943        3.6865257736       -2.5384662945
 H        10.0668287342        5.0291025604       -3.6045625677
 H         7.9969214898        6.9011320759       -3.7070285333
 H         7.4034131048        5.5086436760       -4.8537927767
 H         6.4501213217        6.3439759055       -3.3346339281
 Na        1.3860108384       -0.6922491380        0.6385927783
