155

 C        -6.6791140643       -6.7272109631       -5.8215974166
 C        -6.6909729342       -6.4899839946       -4.3479253203
 C        -8.1302417896       -6.3684594954       -3.4705557314
 C        -8.3128077140       -4.8249495597       -3.0423629547
 C        -8.1736864862       -4.3560233441       -1.5145801333
 C        -9.3864992971       -6.6720938673       -4.4943800146
 C        -8.0470843004       -7.4042017075       -2.3531432259
 O        -5.7668060150       -6.3871707441       -3.5730079981
 O        -8.5137055862       -4.0428836652       -3.9325967529
 C        -8.4411075012       -2.8845227256       -1.1387395436
 C        -7.2414636477       -2.0341848768       -0.6406546163
 C        -7.5296236319       -0.5484243702       -0.0993134390
 C        -6.1589683339        0.2022991367        0.0756613248
 C        -6.0482482473        1.1684491393        1.2813592785
 O        -6.0851052747       -2.3397955155       -0.7202099399
 O        -5.2767098428        0.2788918778       -0.7889449079
 C        -8.3270124075        0.1823268567       -1.2629851128
 C        -8.4257276920       -0.5209089739        1.1169619824
 C        -4.6706076264        0.9705881922        1.8366841907
 C        -4.3154286206       -0.3950404637        2.3959327957
 C        -2.7128123165       -0.5944956826        2.5938310803
 C        -2.2656713608       -1.2882906086        1.2999055237
 C        -2.2131191906       -2.8281300889        1.2507854841
 C        -1.6817634596        0.5520167208        2.8560752299
 C        -2.6285281928       -1.4511841948        3.9019299544
 O        -5.0233762596       -1.3220060638        2.5849140079
 O        -2.0608995792       -0.6456923491        0.2852200209
 C        -2.0573435365       -3.3771332307       -0.1627263036
 C        -0.8239525022       -2.6690120657       -0.8927763167
 C        -1.0031687366       -1.8493762004       -2.2610412738
 C        -0.0100970147       -0.6206928531       -2.2098271484
 C        -0.5321444906        0.8414126774       -2.3091120260
 O         0.3366072399       -2.8658026930       -0.4460261369
 O         1.1889163176       -0.8643620777       -2.1741035751
 C        -0.2525643430       -2.7340699436       -3.2540436413
 C        -2.4511639320       -1.5377703486       -2.6513339660
 C         0.4933260873        1.8773406587       -1.6720133746
 C         0.5359658235        2.1302226564       -0.0917914054
 C         0.7322001695        3.5723434820        0.5486807215
 C         0.5931203705        3.3212394600        2.1191905272
 C         1.8273161301        2.9162292659        2.8886902083
 C         2.1390038787        4.0128272612        0.1999520656
 C        -0.3988011200        4.6141808340        0.0270680504
 O         0.6037684290        1.2047315864        0.6668188226
 O        -0.4691589046        3.5928201932        2.6376350385
 C         1.4083610255        1.8290698546        3.9546454818
 C         2.7029627863        1.0182533192        4.2332349278
 C         2.5001757349       -0.5008044775        4.5988377833
 C         2.4272808787       -1.1207905535        3.1778411877
 C         3.6779440312       -1.8497780345        2.7169372862
 O         3.8273338286        1.5388776085        4.4033425357
 O         1.4013329636       -1.0177855138        2.5344262137
 C         3.6216300672       -1.0267017208        5.4342620754
 C         1.1667455905       -0.7431290492        5.3438052850
 C         4.7594231823       -0.8850593633        2.1452543079
 C         4.4720663334       -0.5344052311        0.6718583319
 C         5.5493830761       -0.5772373321       -0.5066149730
 C         6.3870536592        0.7265192228       -0.3669721978
 C         6.4266465663        1.7419029017       -1.5215955882
 C         6.5466461546       -1.7999531507       -0.3979696773
 C         4.8570557311       -0.6442399300       -1.8737858557
 O         3.3371913545       -0.1860933617        0.4003904553
 O         6.9567841715        0.9697562005        0.6876830286
 C         7.1496933452        3.0555111039       -1.2598158790
 C         6.9266432122        3.9714328294       -2.4873201309
 C         7.8818680588        5.1709657262       -2.7909718879
 C         8.2329976471        5.8510151405       -1.3315963777
 C         7.0889775085        6.2740550900       -0.5066025094
 O         6.0137159784        3.7714820142       -3.2911526776
 O         9.3746985402        5.8695407623       -0.9726808688
 C         9.2107795256        4.6039930516       -3.3713270721
 C         7.2114915991        6.1916774674       -3.7304425534
 H        -5.8023868363       -6.4714002734       -6.4068092425
 H        -6.8531747314       -7.7548907181       -6.0837830637
 H        -7.4877344172       -6.1431069289       -6.2043059589
 H        -8.8107631142       -4.9557813575       -0.9159473224
 H        -7.1715418356       -4.6267024994       -1.2199517790
 H       -10.2752291467       -6.3445736366       -3.9202880958
 H        -9.5631374903       -7.6735627647       -4.7482973797
 H        -9.3510036373       -6.0109919013       -5.3685696063
 H        -7.9743003585       -8.3783023961       -2.7008752039
 H        -7.1616319543       -7.1799240350       -1.7905872383
 H        -8.9509088179       -7.3527867632       -1.6482292605
 H        -8.7594374402       -2.4115210611       -2.0930377639
 H        -9.2952161984       -2.7667306373       -0.5213374594
 H        -6.1634307059        2.2581281196        0.9480700526
 H        -6.8730779834        0.9358674785        2.0300708436
 H        -9.1285416882       -0.4908326366       -1.5567484815
 H        -7.7161186675        0.4189565034       -2.1299107664
 H        -8.7800806203        1.1213214224       -0.8916911437
 H        -8.1917265527       -1.2784967685        1.8611062352
 H        -8.5175891482        0.4097076932        1.6020406285
 H        -9.3458911847       -0.8309865440        0.7528596546
 H        -4.4117849951        1.7082008209        2.5496563987
 H        -3.9825923942        1.0569075980        0.9777401906
 H        -1.3795601449       -3.1476839589        1.8135444716
 H        -2.9844943718       -3.3023166180        1.8561622676
 H        -0.6921478919        0.1250417122        2.8953981743
 H        -1.7650273220        1.1381447777        3.7476922534
 H        -1.7137296760        1.2388944653        1.9981114498
 H        -1.6494926348       -1.9201946034        3.8725970878
 H        -2.8372594354       -0.8083732432        4.6907992220
 H        -3.3863122332       -2.2494843567        3.8920397803
 H        -1.8929636063       -4.4909946173       -0.0847730781
 H        -3.0077008657       -3.2456664940       -0.7079839430
 H        -0.7049165029        0.8741862598       -3.3915311960
 H        -1.4622452105        0.8264154660       -1.8065498775
 H         0.7572324464       -2.6278061868       -2.9873379134
 H        -0.4869625384       -2.3356248966       -4.2380473089
 H        -0.5064305844       -3.7950710761       -3.2377808288
 H        -2.4913983719       -1.1656711964       -3.6976004301
 H        -2.9253374412       -2.4935171527       -2.6589221981
 H        -2.9839523546       -0.9544339487       -1.9228693330
 H         0.1912738466        2.8450130805       -2.1639979433
 H         1.5147444124        1.6699503489       -2.0503436920
 H         2.5479057937        2.4200574214        2.1733070378
 H         2.5653919672        3.6721839726        3.3136077848
 H         3.0307640742        3.4175631004        0.4828224977
 H         2.3654543778        5.0352541459        0.5542036836
 H         2.0993568316        4.0777421020       -0.9273865951
 H        -0.4982901809        4.6194121834       -1.0470547005
 H        -1.3341744215        4.2282418220        0.4602401352
 H        -0.1738836830        5.5241967451        0.6250437405
 H         1.1043684736        2.2836949786        4.9344328687
 H         0.6080228382        1.2937093570        3.5490182860
 H         4.0440896383       -2.3140556629        3.6469013554
 H         3.5710126837       -2.7182595341        2.0477143502
 H         3.9029580533       -0.4363871868        6.2815521845
 H         4.4307214723       -1.1498703603        4.7584324939
 H         3.5454322363       -1.9902094472        5.9470456570
 H         1.1131461576       -1.7491408449        5.7686494154
 H         1.1544240841       -0.0803234952        6.2273392124
 H         0.3504347581       -0.5630660263        4.6884322632
 H         5.7977180009       -1.3867083452        2.2478148190
 H         4.7355796756        0.1444520761        2.5807514840
 H         6.8710203643        1.1338173903       -2.3642649708
 H         5.3780491141        1.9074530882       -1.8254735482
 H         6.1281675855       -2.7586039354       -0.7122836248
 H         6.9207937597       -1.9876577174        0.6236270811
 H         7.4398472571       -1.5599588652       -0.9611345558
 H         5.3721786857       -0.2409144429       -2.7211623826
 H         4.7391161863       -1.7428757269       -2.0882106791
 H         3.8190239340       -0.2866257791       -1.8582213588
 H         6.6824168798        3.4337945995       -0.3271921575
 H         8.1997523476        2.8024629678       -1.0318749050
 H         7.1809531527        6.0566474528        0.5230766466
 H         6.8604528598        7.3033282835       -0.5958449482
 H         6.1438254963        5.7900364709       -0.5917713815
 H         8.9676243309        3.7130313582       -3.9623302668
 H         9.8671375004        4.1874767686       -2.5874323549
 H         9.7381026564        5.3161825904       -3.9670530391
 H         7.9589228158        6.9088599216       -4.0024253784
 H         6.8295550542        5.5199890648       -4.5460531709
 H         6.3172875503        6.6582527003       -3.2831213893
 Na        1.0079544509       -1.0374955273        0.3951038202
