155

 C        -6.9279169359       -6.4458419624       -6.0538881195
 C        -6.7426040575       -6.3260644759       -4.4939882615
 C        -8.0674648970       -6.2851654356       -3.5867219425
 C        -8.1452699132       -4.7495471369       -3.2019505511
 C        -7.7722323108       -4.4609365338       -1.7313676831
 C        -9.2613745187       -6.7232954505       -4.4231892186
 C        -7.9682892242       -7.2521941467       -2.3800740126
 O        -5.6682809037       -6.2940856650       -3.9621501724
 O        -8.5558053432       -3.8821958507       -3.9779227025
 C        -8.3017193332       -2.9949238389       -1.5873615721
 C        -7.2017616292       -2.1001500929       -0.8912821407
 C        -7.5602276869       -0.6101365177       -0.3375801038
 C        -6.2025027745        0.2102306474        0.1111200063
 C        -6.1607474806        1.0299877524        1.4558419831
 O        -6.1431508025       -2.6405578723       -0.5686761039
 O        -5.4419725450        0.3734636146       -0.8030642711
 C        -8.3804292859        0.2848539156       -1.3969721410
 C        -8.4822163899       -1.0944685591        0.8138519310
 C        -4.6940175840        1.2050251863        1.9701779365
 C        -4.2717376523       -0.1734780678        2.5601308597
 C        -2.7579201839       -0.6980910742        2.6792739630
 C        -2.2132934904       -1.4478165760        1.4033762752
 C        -2.2017614890       -2.9952231540        1.1591882030
 C        -1.9535332505        0.5813976963        2.8757269151
 C        -2.5572472363       -1.7444256630        3.8487554159
 O        -5.1809698461       -0.8664582855        2.9866579365
 O        -1.7376024440       -0.7509930528        0.5175523041
 C        -2.1649371297       -3.2915106634       -0.3705963277
 C        -0.8292660002       -2.7602999892       -0.8755153576
 C        -0.8065385191       -1.8103800958       -2.3157327147
 C         0.1000316205       -0.6271242550       -2.1998038289
 C        -0.5141473938        0.7983129711       -1.8867197244
 O         0.2400555712       -3.0329864249       -0.3958672117
 O         1.3336634301       -0.6598052331       -2.1784936908
 C        -0.4473070264       -2.8998192733       -3.4120725388
 C        -2.2629090153       -1.3047412436       -2.6455146732
 C         0.5350430494        1.8843343614       -1.5850369766
 C         0.6097435674        1.9502548130       -0.0909565252
 C         0.5770423914        3.3757668682        0.5819055694
 C         0.5229490239        3.3048975924        2.1812546612
 C         1.7727960175        2.9754712126        3.0168698431
 C         1.9411996011        4.1168491761        0.1547859660
 C        -0.6124558711        4.2135172494        0.0751847075
 O         0.3825272221        0.9247704124        0.6234818577
 O        -0.5872117848        3.4340052460        2.6752206618
 C         1.5890800865        1.9086286046        4.0309068426
 C         2.8054054100        1.1659198372        4.3737847570
 C         2.5347942917       -0.4812228084        4.8134935577
 C         2.5985692451       -1.1078727144        3.4237573379
 C         3.8176235477       -1.7202685359        2.6627691550
 O         3.9123632937        1.5560886949        4.3052775565
 O         1.5799848404       -1.0436016404        2.7256111993
 C         3.7593906769       -0.8543620782        5.7591093614
 C         1.1042837657       -0.8149641183        5.4349388737
 C         4.6963959614       -0.6404358915        1.9883549803
 C         4.4128867390       -0.4303070220        0.4610818167
 C         5.5932502364       -0.5418898810       -0.4922362155
 C         6.3875586983        0.7639521787       -0.3575899904
 C         6.2422086073        1.7788268095       -1.4674097636
 C         6.6203535316       -1.6508088524       -0.1287561251
 C         4.9773119553       -0.8433268049       -1.8927002241
 O         3.2750149519       -0.4916587282       -0.0156078002
 O         6.9955647790        1.0059879126        0.6511900190
 C         7.0507841174        3.0830907802       -1.2928805347
 C         6.8800301189        3.9069770776       -2.5598793118
 C         7.8797405101        5.2221619072       -2.7154926150
 C         8.1430155742        5.9482930691       -1.3261274050
 C         7.0001471105        6.5067928107       -0.4141530827
 O         6.0387013955        3.7011298953       -3.3675580826
 O         9.2691325647        6.0755721348       -0.9088752860
 C         9.2084406953        4.8238144807       -3.3241794905
 C         7.0845714147        6.2659877176       -3.6061005369
 H        -6.0257873689       -6.1206505363       -6.5956867131
 H        -6.9689194918       -7.4926712628       -6.3285651237
 H        -7.7169922804       -5.8981423493       -6.5531823543
 H        -8.4297462285       -5.0686632226       -1.0919820561
 H        -6.7351733031       -4.6029553777       -1.4418482438
 H       -10.0503022127       -7.1334481617       -3.8467768263
 H        -8.8542678926       -7.6139173605       -4.9697099279
 H        -9.6116583508       -5.9891833439       -5.0926266330
 H        -7.9141550177       -8.3400231170       -2.7636161160
 H        -7.1667796992       -6.9411728237       -1.6443707694
 H        -8.8876558971       -7.3438855439       -1.9010473262
 H        -8.7020758292       -2.6434845610       -2.5428856262
 H        -9.2282834545       -3.0016433946       -0.9265229372
 H        -6.5861604017        1.9587427983        1.1992562197
 H        -6.7726539080        0.6642002737        2.1931693982
 H        -8.9245662287       -0.3672521249       -2.0570499640
 H        -7.6852666120        0.9336551823       -2.0006154175
 H        -8.9419211737        0.9851164795       -0.8540547645
 H        -7.8639209649       -1.6999135381        1.5381159566
 H        -8.8885356821       -0.1960960096        1.4001405650
 H        -9.3114686117       -1.8559173815        0.5476452757
 H        -4.6723909249        2.0081100640        2.8031495659
 H        -3.9820125784        1.5065567075        1.1762804420
 H        -1.2757112972       -3.4290657814        1.7194254070
 H        -3.0319253216       -3.4532036837        1.7384514467
 H        -0.8885225612        0.4002996631        3.1374539984
 H        -2.2581507446        1.0172242653        3.8666749836
 H        -2.1745323609        1.3746130725        2.1425525048
 H        -1.5258050313       -1.7402181648        4.1589343784
 H        -3.3006740353       -1.5064459339        4.6799027790
 H        -2.8445485115       -2.6953247483        3.4978723599
 H        -2.1310503610       -4.3573826721       -0.5796044342
 H        -3.0562441221       -2.9072938270       -0.8763716077
 H        -1.1557865240        1.0950187798       -2.7308163507
 H        -1.1562628357        0.4128302931       -1.0447324817
 H         0.4672837814       -3.5011726008       -3.2011482791
 H        -0.4610134832       -2.4128961788       -4.3823520828
 H        -1.3186621996       -3.5444990101       -3.4270575293
 H        -2.1091025718       -0.7328075635       -3.5381768466
 H        -3.0278993481       -2.0675277202       -2.9336185596
 H        -2.7130834020       -0.7130545927       -1.8119760609
 H         0.2531790832        2.7433961300       -2.1174133165
 H         1.4588473465        1.5693084321       -2.0464496241
 H         2.6921869832        2.8268237890        2.5123096661
 H         2.0058692919        3.8670070790        3.5499995894
 H         2.6639244217        3.3598618589       -0.0907456815
 H         2.4591809989        4.5847090207        1.0023986480
 H         1.8908699066        4.7415416594       -0.7299593679
 H        -0.2725548886        4.2790734938       -0.9831900052
 H        -1.5957461807        3.6841018484       -0.0103283233
 H        -0.6002566317        5.1029124585        0.6488497925
 H         1.1277735024        2.2452266867        4.9587776093
 H         0.8111218433        1.2086674067        3.5537250699
 H         4.4423450749       -2.3987618919        3.2226385057
 H         3.3970221119       -2.3746857750        1.9023917838
 H         3.4276804454       -0.8714267313        6.8247399749
 H         4.7367206655       -0.3478124780        5.6869788453
 H         4.0155169307       -1.8890981746        5.7129642832
 H         1.2189362081       -1.8424901903        5.8686259650
 H         0.7140080993       -0.0417099231        6.1532499928
 H         0.3556479523       -0.8675503069        4.5708504640
 H         5.6929485347       -0.9731484743        2.0430120041
 H         4.5797786868        0.3322698607        2.4678801292
 H         6.5683411655        1.2462757620       -2.3507186138
 H         5.1622438100        1.9858029798       -1.6259726108
 H         6.1802272584       -2.6532153543       -0.1921221019
 H         6.8948594375       -1.5565820012        0.9267102805
 H         7.5152129188       -1.6295991590       -0.8027809804
 H         5.6693270034       -1.3254832576       -2.5901664989
 H         3.9683530914       -1.2815886114       -1.9098605269
 H         4.9311114917        0.1860390078       -2.3945447884
 H         6.7603705488        3.5718047639       -0.3775840484
 H         8.0642328858        2.7263353789       -1.2710826141
 H         7.0273981230        6.1683890130        0.6024717773
 H         7.0237617149        7.6104958315       -0.3957333416
 H         5.9371666542        6.3513409879       -0.5419952983
 H         9.0660630996        4.6521597408       -4.4362722607
 H         9.5896032317        3.8773293313       -2.9304682090
 H         9.9627253067        5.6398535371       -3.1288583429
 H         7.6940348869        7.2218066917       -3.6823584222
 H         6.8433707665        5.7350368914       -4.5235067301
 H         6.0714897066        6.3523082560       -3.1256873554
 Na        1.1921043092       -1.2296500606        0.4028165302
