155

 C        -7.9317006369       -4.1311337978       -8.2298191620
 C        -6.8263472975       -4.0952847080       -7.2477959644
 C        -6.4688309062       -5.5016933201       -6.5636026816
 C        -6.8340325814       -5.3115677713       -5.0865305933
 C        -5.7811556375       -4.5452721452       -4.1122402227
 C        -7.4168576476       -6.7143902159       -7.0614350933
 C        -5.0029600505       -5.9021089626       -6.7933164374
 O        -6.3079561300       -3.0555332892       -6.8969584267
 O        -7.9799277755       -5.4456466955       -4.7116963966
 C        -6.4922256339       -3.8998048419       -2.9218520480
 C        -6.0128756974       -2.4555772550       -2.6977060578
 C        -6.7442711710       -1.7077353450       -1.4846384889
 C        -6.2578286110       -2.4003595455       -0.1859712080
 C        -6.7251696347       -2.0432749954        1.2343352690
 O        -5.1199966575       -1.9142562682       -3.2430554184
 O        -5.4282494464       -3.2538445892       -0.3141678900
 C        -6.1493413226       -0.2934864825       -1.4909774276
 C        -8.2608152788       -1.6757747291       -1.6049363395
 C        -5.8147522271       -1.0142520055        1.9238917805
 C        -5.3027501227       -1.6735645028        3.2357326928
 C        -3.8847152048       -1.1566160822        3.8281940510
 C        -2.8361252370       -1.3570807262        2.6084117986
 C        -2.1918255162       -2.8324769491        2.3932297766
 C        -4.1802191880        0.3485646025        4.0986145872
 C        -3.5522961211       -2.0199663658        5.1017676556
 O        -5.8968296340       -2.5457063379        3.8012189462
 O        -2.5914856272       -0.4184068171        1.8067523439
 C        -1.9375309157       -3.0056135739        0.9124927095
 C        -0.6974769267       -2.2304818312        0.6176192653
 C        -0.5059082106       -2.0067369553       -0.9946442297
 C        -0.0659175083       -0.5343683764       -1.3474315275
 C        -1.2002494972        0.5356195434       -1.1616859080
 O         0.0506330518       -1.7773126514        1.4279513512
 O         1.0727744392       -0.1212562701       -1.5750739802
 C         0.5949333924       -3.0266235904       -1.4620952483
 C        -1.8780969128       -2.4059193162       -1.7705729171
 C        -0.8096075348        1.9854633817       -0.8472012166
 C        -0.1835782990        2.1139818616        0.5520379371
 C        -0.6108410564        3.3355666864        1.4797765348
 C        -0.2469296882        2.8655528583        3.0613999198
 C         1.2124433242        2.5677303639        3.4477359101
 C         0.2745693158        4.4002153520        0.9751563764
 C        -2.0223116719        3.7485281333        1.3066560901
 O         0.7469765647        1.4093637572        0.8921655962
 O        -1.1557664757        2.7670532885        3.8418276002
 C         1.2712003175        1.2105021647        4.1834589031
 C         2.8317407333        0.9216057675        4.3077247434
 C         3.3918341506       -0.4836301385        4.7287786996
 C         3.7150612521       -1.2471371368        3.3621476417
 C         5.1577133158       -1.2913261271        2.6535001587
 O         3.5935174541        1.8289702166        4.1067547693
 O         2.7645475521       -1.6973714078        2.7979740910
 C         4.7303247501       -0.3723255404        5.5408009569
 C         2.3654988476       -1.1484777042        5.6135996104
 C         5.2987912781        0.0710777399        1.9056680721
 C         5.3691791052       -0.2467290339        0.3473792511
 C         6.6981104725       -0.2705353102       -0.3268901696
 C         7.2411563497        1.2116542135       -0.3029268215
 C         6.4887394361        2.1604219715       -1.2682175439
 C         7.6200577702       -1.2180308288        0.4256238455
 C         6.5579599280       -0.7337963594       -1.8447781997
 O         4.3335550176       -0.2655022654       -0.3322702363
 O         8.0480396731        1.5716612680        0.4953054412
 C         6.7336254178        3.6715874691       -0.9609297300
 C         5.8816684954        4.4464826728       -2.0234644094
 C         5.8669618668        6.0412763934       -2.0168037621
 C         5.8248691624        6.6527588970       -0.5648227497
 C         5.6871377984        8.2187968222       -0.5194030622
 O         5.4363763148        3.8672065480       -3.0334153391
 O         5.7751299387        5.9791377813        0.4202524102
 C         7.2382629842        6.4092908764       -2.6344280058
 C         4.6722584340        6.5081955073       -2.9223885651
 H        -7.6315625961       -4.9380496247       -8.9747309654
 H        -8.8983344811       -4.3475474209       -7.7287701056
 H        -8.0302279830       -3.2302504398       -8.8285502631
 H        -5.0121969621       -5.2376630635       -3.8555684780
 H        -5.2419297015       -3.7473586441       -4.5559230126
 H        -7.2744479678       -7.5936291838       -6.4928179098
 H        -7.2189856344       -7.1084156230       -8.0966897350
 H        -8.4393117982       -6.4507518582       -6.9356061954
 H        -4.8321667792       -6.2850092393       -7.8367260545
 H        -4.4610589502       -4.9717511462       -6.5434658703
 H        -4.5389333057       -6.5915721267       -6.1344743334
 H        -7.5451705326       -3.9060695411       -3.2413216286
 H        -6.3713809207       -4.5198653216       -1.9588629072
 H        -7.7618439763       -1.7076652603        1.2959200173
 H        -6.6714783346       -2.9281952377        1.8150637585
 H        -6.7204120450        0.4068300408       -2.1595923432
 H        -5.0280004406       -0.3342518407       -1.6917944341
 H        -6.2300558019        0.3192184998       -0.5124812413
 H        -8.6392781946       -2.7282120286       -1.6859509215
 H        -8.7747599542       -1.2648078728       -0.6439498454
 H        -8.6110623048       -1.1438302943       -2.5469778991
 H        -6.3409668508       -0.0706493960        2.2224789891
 H        -5.0373616888       -0.5892907707        1.2728593122
 H        -1.2838350052       -2.9732534097        3.0325614060
 H        -2.9793398720       -3.5897717640        2.7750778256
 H        -3.2520459465        0.9196771692        4.3876573817
 H        -4.8842775479        0.4121595442        4.9678607314
 H        -4.7306962667        0.6405945627        3.2070122193
 H        -4.2719943684       -2.8051136822        5.1885961188
 H        -2.6125535111       -2.6458766831        5.0492808756
 H        -3.6138924023       -1.5346593563        6.0407286192
 H        -1.6983680029       -4.0552113532        0.7724533978
 H        -2.8842924399       -2.8187379632        0.3870590906
 H        -1.9612132883        0.5975407328       -1.9479710653
 H        -1.8305944067        0.2776580938       -0.3545441125
 H         1.5094666123       -3.0156330879       -0.8324667912
 H         0.9035458723       -2.9349228070       -2.4763593214
 H         0.1435283169       -3.9842939304       -1.3574651705
 H        -1.5708869499       -2.4675777374       -2.7966153943
 H        -2.2136068618       -3.3575503930       -1.4069495223
 H        -2.7018775533       -1.7144262868       -1.6412014763
 H        -1.6560565193        2.7006907273       -1.0028889890
 H         0.0479860634        2.3472746306       -1.4695229373
 H         1.8650477880        2.6925691798        2.5619841727
 H         1.5063963064        3.3094860978        4.2061444359
 H         1.3302815951        4.0988115049        1.0523680079
 H         0.1567925300        5.3326220017        1.5780937464
 H         0.1544542693        4.5530658073       -0.0752918707
 H        -2.1677918517        4.5164234931        0.5916879660
 H        -2.7437976457        2.9534237591        1.0524985055
 H        -2.2156440627        4.0486106659        2.3180347672
 H         0.6726754138        1.4435756645        5.0995485805
 H         0.6318150597        0.4139148389        3.6250863222
 H         5.9747247042       -1.3270506413        3.4386774480
 H         5.2756081874       -2.1853002696        1.9718415735
 H         5.5144696926        0.1696475648        4.9714929170
 H         5.0502251858       -1.3430199607        5.9049476670
 H         4.6594834063        0.3589366719        6.3152456083
 H         2.6023569486       -2.1380877314        6.0549592809
 H         2.1230659785       -0.4740702213        6.4327362350
 H         1.4492984696       -1.4774771398        5.0201477021
 H         6.2129039568        0.5711077273        2.1103886042
 H         4.5616035483        0.8282544491        2.1165424111
 H         6.9852860575        1.9889661455       -2.2057367184
 H         5.4165551595        1.9122239534       -1.3394004645
 H         7.9463586785       -0.7703792716        1.3680106915
 H         8.5700918679       -1.3435555319       -0.0759178767
 H         7.2422047535       -2.2644646274        0.4326316644
 H         5.6060178673       -1.0810948050       -2.0832154472
 H         6.8915109796        0.1274657109       -2.3978677996
 H         7.3085221811       -1.4810961497       -2.0986080999
 H         6.4300623095        3.9311674875        0.0269451517
 H         7.7260322160        4.0057051557       -1.2262701384
 H         5.7395152368        8.4525660927        0.5498413069
 H         6.5403410154        8.8186951308       -0.8902265184
 H         4.7037579542        8.3467404279       -1.0435699703
 H         7.9125159280        7.0797911508       -2.0083894882
 H         7.1737764712        6.9199263993       -3.6100215763
 H         7.9122721137        5.5178219953       -2.8458535825
 H         4.7387086064        7.4127964479       -3.4087007547
 H         4.5165143837        5.8290721249       -3.7539521689
 H         3.7256042988        6.4868898139       -2.4322366178
 Na        2.0873097062       -0.6809927547        0.6019395105
