155

 C         0.9962567654        7.0735671796        2.6465373167
 C         0.8042815361        5.6204473663        2.8599985963
 C         1.6111027606        4.8752729835        4.1158012728
 C         0.5643293621        4.1525465731        5.0286279687
 C         0.1142049521        4.6809004291        6.4615271077
 C         2.5392120282        3.8854953497        3.5379825529
 C         2.3820024323        5.9557600279        4.8650568799
 O         0.1715461135        4.9860870060        2.0545077986
 O        -0.0776109854        3.2175823829        4.6299433626
 C        -1.3873194357        4.7831235706        6.3567773799
 C        -1.7987429246        6.0985073607        5.7398817695
 C        -3.1185000131        6.8781201150        5.9794593178
 C        -4.1438491743        6.3950208009        4.7937764546
 C        -3.9264551507        7.0128582549        3.2951114486
 O        -1.0236888474        6.5839520267        4.8642389586
 O        -4.8071943472        5.4123833976        4.9140438158
 C        -3.8033440238        6.7087886415        7.3640838782
 C        -2.8555200450        8.4353733915        5.7764427873
 C        -4.2837949265        6.1523146929        2.1384457002
 C        -3.7042092927        4.6554902779        2.2906077565
 C        -4.3818134314        3.4952548494        1.5394098210
 C        -3.3795929700        2.4440735852        0.9548139266
 C        -3.9302116210        0.9588677677        0.6533638420
 C        -5.0924448502        2.7335852188        2.8116061382
 C        -5.5331213546        3.8308764742        0.4762616520
 O        -2.6844734825        4.3749520004        2.8776996659
 O        -2.2119132197        2.6877402134        0.7762031866
 C        -2.8264269556        0.0600610612        0.2870303468
 C        -1.8154557190       -0.0387382223        1.4076993973
 C        -0.4192357899       -0.7903475877        1.3447811974
 C         0.6107881804        0.0917610671        0.3746840160
 C         1.5945409340       -0.7830050324       -0.3708417530
 O        -2.1002887042        0.5271619307        2.5157238566
 O         0.7078733288        1.3275972236        0.4075367824
 C         0.2636666513       -0.7731806803        2.6994890932
 C        -0.6189544873       -2.1182612161        0.6845420288
 C         2.8857091545       -0.0054969639       -0.9256943301
 C         4.1600721701       -0.9605955806       -0.7069293087
 C         4.8794857129       -1.6439026240       -1.9568032182
 C         3.8150499118       -2.7836309054       -2.1322536540
 C         4.1102179189       -4.2069927304       -1.5800356196
 C         4.8931703576       -0.7015777944       -3.1679157018
 C         6.3596039288       -1.9799678792       -1.5651431457
 O         4.6195057067       -1.0579239982        0.4252237875
 O         2.7858834373       -2.4849379639       -2.6387835957
 C         2.9695763151       -5.2288529093       -1.7255877131
 C         2.0666510100       -5.4124591025       -0.5443303272
 C         0.9216061708       -6.6497548192       -0.6632821439
 C        -0.2650061736       -5.9643955182       -1.5417955899
 C        -1.6939498988       -5.8161075738       -0.9132115021
 O         1.9703889199       -4.7142155439        0.4513742005
 O        -0.1782194164       -5.6700179561       -2.7311919292
 C         1.5255765492       -7.9245959924       -1.5194787728
 C         0.6232174034       -7.0982018118        0.7080070484
 C        -2.7394960368       -5.5326482003       -1.9831374937
 C        -3.0152350068       -4.0029885343       -1.9371974365
 C        -3.7311706891       -3.4133737105       -3.1599626408
 C        -2.7769215063       -3.8802598649       -4.3441457694
 C        -1.5817348153       -2.9127333885       -4.6234478345
 C        -5.1167226671       -4.0754385066       -3.5190564677
 C        -3.9070130297       -1.9795271024       -3.0465192960
 O        -2.8159351915       -3.2422300055       -0.9988930932
 O        -2.8849653382       -4.9453836525       -4.9075081358
 C        -0.7672619835       -3.2463135236       -5.9132602360
 C         0.1377090214       -2.1103796591       -6.5235913918
 C         0.2457245509       -2.2539975542       -8.1339529791
 C         0.3532232084       -3.7679880004       -8.5361782195
 C         1.5590453903       -4.5198198654       -8.7786263606
 O         0.6127670639       -1.1836137922       -5.9012988272
 O        -0.7367499518       -4.3163740250       -8.4552816605
 C        -0.9603684188       -1.4472834133       -8.6181546021
 C         1.5365141575       -1.5350067622       -8.7416126312
 H         1.9039212160        7.5303668274        3.1270119591
 H         0.9716855644        7.3402606384        1.5176165363
 H         0.0849482084        7.6063097410        3.1114460399
 H         0.2916249739        3.7828230105        7.0261333820
 H         0.6600972585        5.5985157500        6.8210279098
 H         3.1125353432        4.4948182821        2.7941885302
 H         2.1440569946        3.0448994252        2.9335429761
 H         3.2835359986        3.4432325200        4.3048536970
 H         1.7213010048        6.6962388794        5.1230812828
 H         2.9614147126        5.5487301896        5.6620215907
 H         3.1665852981        6.3851374475        4.1917452357
 H        -1.8202501690        4.0473646999        5.7335630142
 H        -1.8479161811        4.7063815871        7.3803018884
 H        -4.5356497067        7.9222092972        3.3214929577
 H        -2.8532746117        7.2044045496        3.2675181213
 H        -4.1309790856        5.6780771658        7.2497523169
 H        -4.6684854430        7.4606409623        7.5121223829
 H        -3.1476930509        6.7385018752        8.2574253768
 H        -2.1768956984        8.7299604710        6.5283205013
 H        -2.3210145948        8.6225346643        4.7893500695
 H        -3.7321484562        9.1279027695        5.7714835891
 H        -3.9022535775        6.4250247332        1.1020199981
 H        -5.3668158163        6.1299698417        2.0641799944
 H        -4.5871508107        0.5959104724        1.4627642513
 H        -4.5964042716        1.0255299727       -0.1825302866
 H        -5.5506231028        3.3954219730        3.5157583404
 H        -4.3562346900        2.2062677946        3.3720432033
 H        -5.8665889151        1.9888668555        2.5537608596
 H        -6.0968977418        4.7225565445        0.6352742417
 H        -5.0154112692        3.9779101967       -0.4664990830
 H        -6.2766151986        3.0622001646        0.3146725419
 H        -3.2072752057       -0.9788304197        0.1055143959
 H        -2.2474077026        0.3130525252       -0.6407719905
 H         2.0154660953       -1.5837707750        0.2777754404
 H         1.0469401049       -1.3559086244       -1.1298472601
 H         0.5754651348        0.2176708789        3.0423789486
 H         1.2193481830       -1.4139749996        2.6956209766
 H        -0.3351998129       -1.1628429543        3.5830082994
 H         0.1469787526       -2.8488440565        0.9018968387
 H        -1.5760700649       -2.4752715598        0.9774967905
 H        -0.6879433168       -2.0788649009       -0.4012647612
 H         2.9914150697        0.7414820203       -0.0835669199
 H         2.8052670732        0.2983611733       -2.0140100314
 H         4.9118424764       -4.4875544187       -2.2247893956
 H         4.4151071927       -4.1407829370       -0.5740926840
 H         5.5776500267       -1.0728527896       -3.9439079212
 H         5.2334797849        0.4016411506       -2.9178743904
 H         3.9675984506       -0.5621550758       -3.6783834232
 H         6.6824905343       -2.1733079537       -0.5592650926
 H         6.7123638325       -2.7936775222       -2.0910840510
 H         6.9433729268       -1.1720678240       -1.7845799011
 H         2.3921102918       -5.0137862498       -2.6389640371
 H         3.3685245802       -6.2657505420       -1.8736816210
 H        -1.8126533705       -6.7084865141       -0.3375438434
 H        -1.8475087380       -5.0227030365       -0.0965611814
 H         2.1269860576       -7.6105305853       -2.3899931377
 H         0.6225088957       -8.4799113456       -1.7543430184
 H         2.0999553220       -8.4973598154       -0.7765258413
 H         1.5467083620       -7.4612166387        1.1974592049
 H         0.2921771143       -6.2532076557        1.3577851370
 H        -0.1485436450       -7.9301141569        0.7462419047
 H        -3.7054357878       -6.0090595650       -1.8886409270
 H        -2.4105311709       -5.8700952558       -2.9771141934
 H        -1.9216701189       -1.9199177568       -4.6349404769
 H        -1.0286640289       -2.9929477213       -3.6714476852
 H        -5.0273453669       -5.1116992013       -3.5388326791
 H        -5.4584167375       -3.7083791271       -4.4799381626
 H        -5.8542937892       -3.8809803509       -2.7590309612
 H        -4.7485272048       -1.7522887469       -2.3693839378
 H        -3.0709203018       -1.5448156842       -2.5749887084
 H        -4.1469543357       -1.5349459701       -3.9865391013
 H         0.0280645775       -3.9212339939       -5.7732136236
 H        -1.3722307524       -3.8761879875       -6.5513341951
 H         1.8119836267       -4.6497084893       -9.8210550335
 H         2.4173321669       -4.0462772885       -8.3527350406
 H         1.4794579445       -5.5341462551       -8.3018896631
 H        -0.6343067243       -0.4202799841       -8.6624061050
 H        -1.7292964502       -1.7230346013       -8.0018046282
 H        -1.1621201060       -1.7819948379       -9.6379764465
 H         1.4904220162       -0.5249266965       -8.4007763542
 H         2.5068856712       -1.9874059592       -8.4827484851
 H         1.5930059345       -1.4330791364       -9.8976561118
 Na       -0.5952467435        2.9254309285        2.4363278587
