155

 C         1.4952992186        6.4863247620        2.2130035735
 C         1.0962048971        5.0324197300        2.4748407128
 C         1.4105879889        4.5316880014        3.9376890444
 C        -0.0150530407        4.1812352947        4.6148378915
 C        -0.2627577922        4.3559212256        6.0572543922
 C         2.2970332293        3.2568797721        3.9470951189
 C         2.2066750473        5.5890321021        4.7641817020
 O         0.5755132328        4.3040640387        1.7107623273
 O        -0.9395321287        3.7451525407        3.9167920224
 C        -1.6985320413        4.6521662283        6.3922089928
 C        -2.0082816457        6.1230529577        6.1041135345
 C        -3.4302119093        6.6928686972        5.6491550039
 C        -3.9769590935        6.0527305425        4.3847318411
 C        -3.5609007495        6.5524798239        3.0712701037
 O        -1.1149248579        6.9503364851        6.2563685948
 O        -4.7525928129        5.1204120400        4.5117272128
 C        -4.4203529044        6.5111707127        6.8291310580
 C        -3.2333862349        8.2359952935        5.3674522221
 C        -4.2651550447        5.7531667132        1.9411314718
 C        -3.6295380524        4.4240779355        1.5292187320
 C        -4.5189009613        3.1322179043        0.9818463659
 C        -3.6540412888        1.8209562772        0.6720028433
 C        -3.9573547039        0.4348535561        1.4355100180
 C        -5.7390561960        2.8468720536        1.9848421551
 C        -5.0591486484        3.6473916695       -0.3060304757
 O        -2.4691434494        4.4026632973        1.2064871110
 O        -2.7894740961        1.7785949688       -0.1437678832
 C        -2.8803924477       -0.5716907854        0.9667472829
 C        -1.6975089523       -0.3949002290        1.8987446777
 C        -0.3501482648       -1.2669173721        1.9484363725
 C         0.8423906280       -0.4170136139        1.4228260332
 C         2.0858700848       -1.1405344869        1.1408446743
 O        -1.7452111882        0.5617681195        2.6816994872
 O         0.6857187893        0.8322954810        1.3106087760
 C        -0.0227415127       -1.3313495928        3.5172512595
 C        -0.5262037606       -2.6217405704        1.4455945403
 C         2.9478639060       -0.1979117343        0.2158575354
 C         4.3596512536       -0.6706604720        0.1519216097
 C         4.9467112062       -1.0856795263       -1.3239469023
 C         3.9783691608       -2.2804352011       -1.8368069770
 C         4.1242723993       -3.6662702262       -1.0703757840
 C         4.7646319395       -0.1488144653       -2.5047539057
 C         6.4430897044       -1.4834825924       -1.2282062723
 O         4.8962273613       -1.0434488648        1.1650415351
 O         3.0970288416       -2.1304550096       -2.6296416489
 C         3.2292322864       -4.9166565360       -1.4918202531
 C         2.0934258307       -4.9493581836       -0.4412445814
 C         0.9926281386       -6.0469647616       -0.4543598923
 C        -0.2245554855       -5.5172434185       -1.3751349534
 C        -1.6814856443       -6.0014740087       -0.9743602924
 O         2.0126291865       -4.0268975236        0.3580691940
 O        -0.0862666993       -4.7958570246       -2.3205569871
 C         1.5358500317       -7.3828609644       -0.9446568475
 C         0.3262161480       -6.1480133819        0.9357582782
 C        -2.7310408272       -5.5824976506       -2.0107398672
 C        -2.7145134812       -4.0288673625       -2.0841189682
 C        -3.4747813644       -3.4268121774       -3.2783296652
 C        -2.7953017069       -3.7820338816       -4.7299023981
 C        -2.1483887048       -2.5466820126       -5.5076425828
 C        -4.8936524207       -4.0939727359       -3.4904823793
 C        -3.6744998427       -1.9376609476       -3.1360426300
 O        -2.3125433374       -3.3224681370       -1.1624734716
 O        -2.6441362361       -4.9176097577       -5.1514547013
 C        -1.3766199304       -3.0478310053       -6.8369490160
 C        -0.4378338725       -1.8724708166       -7.0918026568
 C         0.3176966867       -1.7935727279       -8.4447697850
 C         0.9311958213       -3.2440767894       -8.5989461605
 C         2.3450274587       -3.4873395602       -8.1492703671
 O        -0.2134682414       -1.1090029622       -6.1416514368
 O         0.3810411094       -4.1527354048       -9.1732605942
 C        -0.7047411869       -1.5780725739       -9.6540155742
 C         1.3570471999       -0.6872103317       -8.3182219242
 H         2.6120404027        6.6064034980        2.0968211463
 H         1.1324503100        6.7389988222        1.1541528166
 H         1.1075260701        7.1739280693        3.0212312580
 H         0.0318306185        3.4901450679        6.6221305039
 H         0.2057774738        5.0846629848        6.6760407282
 H         3.3307588180        3.4883211624        3.7820438182
 H         1.8445844698        2.4494691958        3.3117954492
 H         2.3904916766        2.8279079520        4.9951898083
 H         1.6471622727        6.3750860093        5.0952147542
 H         2.5686190537        5.0170627609        5.5834981123
 H         3.1384603293        5.8632192170        4.2838502667
 H        -2.4625309137        3.8813496215        6.0463936994
 H        -1.8160035289        4.5505524491        7.4409711656
 H        -3.8841002772        7.5788393901        3.0312164307
 H        -2.4944440523        6.6313753139        2.8765449962
 H        -4.7112317587        5.4573362266        6.6378078046
 H        -5.3308936080        7.1831783227        6.7365696292
 H        -4.0535912416        6.6583308601        7.8616318829
 H        -2.8357051963        8.7673030524        6.1513281179
 H        -2.4524273467        8.3731732640        4.5515516133
 H        -4.2595643319        8.6382077662        5.1582247876
 H        -4.2353180649        6.2163155840        0.9578024141
 H        -5.3592717633        5.5614462394        2.1713595610
 H        -3.8065141915        0.5309813930        2.5177080776
 H        -4.9531916303        0.1459736660        1.1503063668
 H        -6.7185715388        2.8938274615        1.5105998512
 H        -5.7662747581        3.4263244288        2.9326932263
 H        -5.6011141047        1.8759971753        2.4364677669
 H        -5.5608446442        4.5437764289       -0.1213871454
 H        -4.2065971113        3.9308492900       -0.9217529152
 H        -5.7245747831        2.9200630954       -0.7673876029
 H        -3.4120416165       -1.5434619492        1.0712615159
 H        -2.7152014806       -0.3479170539       -0.0986338933
 H         2.6609428873       -1.2190301565        2.0729528413
 H         1.8669764356       -2.1900910651        0.7634170607
 H         0.0198034287       -0.3717926836        3.9802791502
 H         0.8943881464       -1.8256748849        3.9292645234
 H        -0.9158819135       -1.8280790046        4.0383354741
 H         0.2820823568       -3.2021104079        1.7854670337
 H        -1.3181483522       -2.9944886767        2.0372043168
 H        -0.6768077496       -2.6254862505        0.3614051843
 H         3.0256380283        0.8570259885        0.6487975520
 H         2.4394130532        0.1673193138       -0.6908183910
 H         5.1674140673       -3.8755085588       -1.1513056529
 H         3.9597332434       -3.5649257201       -0.0502764575
 H         5.0646883707       -0.6110017941       -3.4827290558
 H         5.3198401172        0.8619932210       -2.4391510226
 H         3.7452658788        0.0923127981       -2.6057354992
 H         6.5635900327       -2.3325374304       -0.5602366798
 H         6.7828153612       -1.7935083344       -2.1961816248
 H         7.0283242998       -0.6580692629       -0.9320240054
 H         2.8265964677       -4.8364082557       -2.5291299937
 H         3.8591165935       -5.8224791398       -1.4141120576
 H        -1.5481187518       -7.1108056992       -0.8940594589
 H        -1.9047874089       -5.5264278334       -0.0155513748
 H         1.9878632180       -7.3710619390       -1.8873323443
 H         0.6900589331       -8.0356753909       -1.1572043641
 H         2.1342917708       -7.7556926130       -0.1123709091
 H         1.0009192805       -6.7016879454        1.5437337766
 H         0.1045690844       -5.1621499126        1.3864109972
 H        -0.5083061756       -6.8248405903        1.0291138741
 H        -3.7303958355       -5.9622568079       -1.7883870114
 H        -2.3066446467       -5.9508126926       -2.9500377196
 H        -2.8466588191       -1.7748807366       -5.7953587485
 H        -1.4378119003       -2.1237589595       -4.8584407624
 H        -4.8916368710       -4.7685613329       -4.2785991719
 H        -5.5467441620       -3.3412040424       -3.8798538482
 H        -5.4387933751       -4.4120014756       -2.5597267376
 H        -4.5064677168       -1.7323856911       -2.4613429520
 H        -2.8565073381       -1.3453724323       -2.8151898857
 H        -3.9857498740       -1.6152764733       -4.1499181796
 H        -0.8856967747       -3.9648863915       -6.5102064081
 H        -1.9415722260       -3.1440965859       -7.6997364678
 H         2.9548336344       -2.8727957050       -8.7544610634
 H         2.4927124439       -3.0739953653       -7.1936385286
 H         2.7950595661       -4.4837492184       -8.2128955705
 H        -1.3621194639       -0.7862520252       -9.3957372008
 H        -1.1957402344       -2.4919405667       -9.8846819954
 H         0.0385078220       -1.3755121886      -10.3943476659
 H         0.9746542516        0.3576294603       -8.1780802967
 H         1.7827355952       -0.8591848513       -7.3294423635
 H         2.0775247595       -0.7160504336       -9.2073060402
 Na       -0.9751741181        2.6430898678        1.9016569299
