155

 C         2.9990509591        4.6666708694        2.6331468641
 C         1.5411400280        4.3396041929        2.9925450820
 C         1.0840285077        4.1429447811        4.5141993505
 C        -0.3671643905        4.6234543253        4.6678025257
 C        -0.6751437781        5.8626082056        5.5791001124
 C         1.1314397376        2.6153861893        4.9116268213
 C         2.0816233055        4.9461542392        5.4383534985
 O         0.8350245145        3.9893234155        2.1062937251
 O        -1.3291220349        4.0312480341        4.1996908280
 C        -2.0851601938        6.2404527688        5.8552506592
 C        -2.8775621064        6.4324677465        4.5865978864
 C        -4.4522803678        6.1820299790        4.4998288438
 C        -4.9555373267        5.3083874247        3.3444993361
 C        -4.5625485677        5.8953121488        1.9569544767
 O        -2.2469947472        6.6310197461        3.5643600973
 O        -5.6384610428        4.3511936491        3.3831341996
 C        -4.7704912119        5.3314326252        5.8151315036
 C        -5.2709938637        7.5045303428        4.3761841465
 C        -4.7320212056        4.9088409498        0.7747701551
 C        -3.8964129452        3.5969737369        0.9585830111
 C        -4.2799504338        2.2983633379        0.1125323832
 C        -3.4278088804        1.1655120333        0.7467219219
 C        -4.0167166710        0.0733866465        1.5700012260
 C        -5.8181875281        2.0315118636        0.1191266580
 C        -3.6552641090        2.6215142760       -1.3116580000
 O        -2.8133916375        3.6627803365        1.5606898037
 O        -2.1637198341        1.2208439639        0.7001319355
 C        -3.1036845424       -0.9885550841        1.9808076941
 C        -1.8286483957       -0.5105208277        2.8139851862
 C        -0.5122556513       -1.2850054015        2.8181070424
 C         0.4604949018       -0.4385442256        2.0216114676
 C         1.2352290695       -1.1214590819        0.8760551160
 O        -1.8803807149        0.3978092701        3.6182107278
 O         0.7252492432        0.7034849019        2.2925961158
 C         0.2224026225       -1.1924491591        4.1713289933
 C        -0.6401586134       -2.7486425874        2.2998805677
 C         2.5419161784       -0.2585250349        0.4096939858
 C         3.7346719935       -0.9791173012        1.0426432922
 C         5.0931232097       -1.1009580092        0.1780537412
 C         4.7185873307       -2.2456769329       -0.7427020730
 C         5.0604817844       -3.7415779031       -0.2771814484
 C         5.1494379585        0.1866178904       -0.7639494358
 C         6.3993981975       -1.1575224619        1.0662162552
 O         3.6129824285       -1.5795976682        2.1064034456
 O         4.1155677592       -2.1396492864       -1.8261435009
 C         4.2031022063       -4.8478405687       -0.9694397295
 C         2.8223852129       -4.8849228953       -0.3291071827
 C         1.6819547649       -5.7883063422       -0.8942294930
 C         0.7153687344       -4.9834590574       -1.9261869412
 C        -0.7642237494       -4.9968667053       -1.5938567543
 O         2.4798728430       -4.0235377362        0.4756368613
 O         1.1623971722       -4.6665106301       -3.0056612228
 C         2.0971062995       -7.0957015484       -1.6014865579
 C         0.9097190421       -6.3760596913        0.4353078531
 C        -1.6118123941       -4.7331780114       -2.8620737316
 C        -2.7331813617       -3.6678511472       -2.6256818709
 C        -3.6627342014       -3.2850175558       -3.8164510284
 C        -2.9873274408       -3.5027990824       -5.2308783613
 C        -2.6322100998       -2.3527456958       -6.1692857242
 C        -4.9216090761       -4.2859547698       -3.6985471248
 C        -4.1396272930       -1.8259502592       -3.5371462425
 O        -2.8774434283       -3.1245518362       -1.5611798308
 O        -2.7815927270       -4.6379503257       -5.5588724154
 C        -1.2995565247       -2.5632284278       -6.8826004714
 C        -0.6150514321       -1.1973659789       -7.2901788932
 C         0.4348226853       -1.2597090571       -8.4610847863
 C         1.8919675164       -1.3701159119       -7.8738868813
 C         2.5489913708       -0.2466021938       -7.0704633928
 O        -0.7290370233       -0.2099680414       -6.6220178857
 O         2.4529528897       -2.4310439275       -8.0557086473
 C         0.1951214654       -2.4987145918       -9.4772175602
 C         0.4252849137        0.0401458690       -9.3616048151
 H         3.6764928977        4.0253699315        3.0376154109
 H         3.1485924627        4.6018458699        1.5427244048
 H         3.2184713916        5.6279581745        2.9608528818
 H        -0.1719271324        5.4334293039        6.5322554044
 H        -0.1914145796        6.7647466761        5.2292453501
 H         2.0593448339        2.2004649891        4.4663169143
 H         0.2297111698        2.1168968218        4.5192291967
 H         0.9674584236        2.3791668228        5.9977722974
 H         2.0703845629        6.0722452767        5.3428409081
 H         1.8769697660        4.7610253647        6.4555145235
 H         3.0712219678        4.7059419792        5.1255766254
 H        -2.5374074886        5.3677301311        6.3540513025
 H        -1.9719414600        7.0607686626        6.5302517263
 H        -5.0959211595        6.8181315187        1.6675922858
 H        -3.4932022035        6.0490652212        1.9104129186
 H        -4.2550686068        4.3716699342        5.9374929825
 H        -5.8791025283        4.9902516057        5.7976943892
 H        -4.5626797022        5.8968951549        6.7546540715
 H        -5.2147811173        8.0815479667        5.3701621232
 H        -4.9800363786        8.1731438427        3.5440367182
 H        -6.3284066340        7.2306109044        4.3329898306
 H        -4.4773321387        5.4368276638       -0.1309646948
 H        -5.7832807943        4.5564826897        0.6357249586
 H        -4.5929172541        0.3835572853        2.4468055437
 H        -4.7431638331       -0.4953954404        0.8979985164
 H        -6.3678798292        2.4019243215        0.9835284393
 H        -5.9510352596        0.9786416437        0.1046044345
 H        -6.3248461006        2.4663654916       -0.7149828600
 H        -4.3321737656        3.4827955132       -1.7529070185
 H        -2.6502045916        2.9039008729       -1.2075417796
 H        -3.7199991010        1.7211677040       -1.9859666289
 H        -3.6693402289       -1.6826379370        2.6535165221
 H        -2.7103167382       -1.5236842931        1.0920505107
 H         1.4846715873       -2.0693464289        1.1628222917
 H         0.4967434493       -1.1947251594        0.1313080617
 H         0.3680825326       -0.1343703726        4.4902726513
 H         1.2529121236       -1.6155612631        3.9699569742
 H        -0.2074249030       -1.7837625939        5.0078969153
 H         0.3284682467       -3.2422518990        2.3663798195
 H        -1.5046424252       -3.0293438188        2.8808160790
 H        -0.9800827387       -2.5748599321        1.2892385737
 H         2.5704509856        0.7844331322        0.5523783270
 H         2.6133705631       -0.2930818289       -0.6663684712
 H         6.1252262364       -3.9192210799       -0.6406406091
 H         4.9927103686       -3.8212110924        0.8524055873
 H         6.0101007975        0.2627291710       -1.3516442757
 H         4.9702253468        1.0455533512       -0.1378159763
 H         4.1708591862        0.2512494400       -1.4130453409
 H         6.3398806909       -1.5323180208        2.0950237366
 H         7.0275619706       -1.8363950619        0.4378568750
 H         6.8499245605       -0.1172250168        1.1789645182
 H         4.2904495723       -4.7210568381       -2.0108861602
 H         4.5833784163       -5.8316799007       -0.7326337270
 H        -1.0936497957       -6.0152141401       -1.1898854415
 H        -1.0522446130       -4.3008433922       -0.8788761823
 H         2.8557099581       -6.9249014156       -2.4095484453
 H         1.2538983342       -7.6432763853       -1.9863860795
 H         2.6203374550       -7.8065134878       -1.0108184798
 H         1.5439873348       -7.1132234453        0.8595958004
 H         0.9583846573       -5.5756527439        1.1868083061
 H        -0.1031455912       -6.7032535168        0.2294901708
 H        -2.0545320110       -5.7213505329       -3.1027250865
 H        -0.9800502915       -4.5208449411       -3.7072596485
 H        -3.3484090571       -2.3365595455       -6.9800071536
 H        -2.6701100116       -1.3483099814       -5.6182732117
 H        -4.5223481003       -5.2605199891       -3.9897509366
 H        -5.8384429579       -4.0590385402       -4.2564509918
 H        -5.1833582065       -4.3528830322       -2.7254870477
 H        -4.5908331248       -1.8692584986       -2.5482956544
 H        -3.3490099950       -1.1527015051       -3.4354705305
 H        -5.0326531685       -1.5076942467       -4.1018491300
 H        -0.5588120667       -3.1457194981       -6.3562610685
 H        -1.5335860007       -2.9770058990       -7.8578714444
 H         2.3218914173        0.6620997004       -7.6062875038
 H         1.9542088774       -0.0685840694       -6.1906274051
 H         3.5827803431       -0.2339657059       -6.8082736273
 H        -0.8025166532       -2.4289868835       -9.8952873390
 H         0.4206860216       -3.6073549462       -9.2020774146
 H         0.7335226267       -2.2523879440      -10.3786341083
 H        -0.5791450986        0.1873513713       -9.7540792744
 H         0.7195892439        0.8720978245       -8.6855899406
 H         1.1387544502        0.0116792451      -10.2551037990
 Na       -1.0910134084        2.5405995421        2.4741217393
