155

 C        -0.1141376305        6.4842669528        2.4749167920
 C        -0.5136841036        5.0071811797        2.9022512130
 C        -0.1372587888        4.3776301782        4.2962812108
 C        -1.5283193908        3.8572680867        4.8039958754
 C        -2.4781993068        4.4635382172        5.7888072570
 C         0.8754593754        3.2837153327        3.9969097435
 C         0.2956279578        5.4601820914        5.2840309845
 O        -0.9896720325        4.3655220772        1.9864410844
 O        -1.9656663223        2.9313261341        4.1638206331
 C        -3.8817055973        4.7548790458        5.1811948407
 C        -3.8107374184        5.8562585399        4.1335998329
 C        -5.0827239550        6.4371433613        3.5243651222
 C        -5.4382832176        5.1566682446        2.4160938783
 C        -5.1826762827        5.3702648918        0.9295977094
 O        -2.7796929747        6.4407914009        3.9583567276
 O        -6.0475088882        4.2328485922        2.9275339518
 C        -6.2357441251        6.6594552508        4.5300360775
 C        -4.7809270222        7.7894112308        2.8285568612
 C        -5.4192468093        4.0749606577        0.1102936918
 C        -4.1861031903        3.1209221937        0.2215119368
 C        -3.8886094727        2.2423958425       -0.9962415211
 C        -2.9525692758        1.0570458699       -0.4611224877
 C        -3.6849022822       -0.2991381797        0.1660769650
 C        -5.2262455616        1.7200333412       -1.7027306896
 C        -2.9837308649        2.9964345439       -1.9700934001
 O        -3.4638247576        3.1581101970        1.1923933409
 O        -1.7433443816        1.1409131309       -0.5388735363
 C        -2.6885069051       -1.2650346353        0.7824505820
 C        -2.0032943496       -0.7744282228        2.0945140926
 C        -0.5773377524       -1.2753210944        2.5817087417
 C         0.4704064793       -0.5945553558        1.7433034615
 C         1.6119723263       -1.5116151862        1.2754877597
 O        -2.5933290063       -0.0216130970        2.8033782500
 O         0.5148695905        0.5917864917        1.5030496307
 C        -0.3564978898       -0.9871071255        4.0995416288
 C        -0.6003021061       -2.7775749206        2.4852524142
 C         2.9999018208       -0.9443499872        1.6804507513
 C         3.8464600960       -1.7091116722        2.7295359356
 C         5.3424928051       -2.2566016054        2.4437563619
 C         5.2411518518       -3.2084831452        1.2587440152
 C         5.1073033861       -4.7574897803        1.4825437006
 C         6.2350745896       -1.1288071611        1.9694380285
 C         5.7135885548       -2.9498436865        3.8200558474
 O         3.2776195269       -2.0697290841        3.7890284749
 O         5.3003461459       -2.8024098688        0.1190083990
 C         4.8721390382       -5.3565137599        0.0697864972
 C         3.4683586302       -5.2390663253       -0.3746968331
 C         2.8868872935       -6.1457137157       -1.4647686393
 C         2.1022522109       -5.2513502870       -2.5466732807
 C         1.0102345691       -4.2694988868       -2.1430121687
 O         2.6509364522       -4.5960853655        0.2893732692
 O         2.3025531751       -5.4096999706       -3.7334435820
 C         4.0756128713       -6.8918084157       -2.2501207273
 C         1.9577027461       -7.2484111248       -0.9105383415
 C         0.0272781568       -3.9473150836       -3.2547878932
 C        -1.3045511990       -3.4995985158       -2.6303681924
 C        -2.5603594621       -3.4953504128       -3.6222843442
 C        -2.3984279425       -2.8713620525       -5.0663323703
 C        -1.9813190885       -1.4386960325       -5.3088529911
 C        -3.0813145490       -4.9377726938       -3.6462624616
 C        -3.6995684595       -2.6196113782       -2.8845707177
 O        -1.3763059746       -3.1516905169       -1.4417077896
 O        -2.8190940825       -3.5289809300       -6.0034950328
 C        -1.8276974037       -1.1102773878       -6.7782658218
 C        -0.6726916817       -0.0081191352       -6.8720775630
 C         0.6816878460       -0.2219729383       -7.6217544066
 C         1.4962815503        1.0633469141       -7.2238450204
 C         1.2947785079        2.2710049323       -8.0935735274
 O        -0.9335404121        1.0770243036       -6.4181294563
 O         2.1835070441        1.1417087712       -6.2030543691
 C         1.3285118784       -1.4246783057       -6.7645687417
 C         0.6032020938       -0.4333641946       -9.0590782998
 H         0.8398064546        6.4231283279        2.0618557815
 H        -0.8214423821        6.7979924550        1.8387401772
 H        -0.0182725136        7.1981783824        3.2898051909
 H        -2.7036087713        3.7201293964        6.6067131930
 H        -2.0263163369        5.2408595670        6.2885737092
 H         1.4448568381        3.7710202660        3.1918300506
 H         0.4508643872        2.4664343055        3.5233700766
 H         1.5406694186        3.0250014412        4.8090121239
 H        -0.4625834992        6.1644919139        5.4733111331
 H         0.6661799372        5.0986318267        6.2833503979
 H         1.0244324680        6.1554445884        4.8639025234
 H        -4.2287397125        3.8110420881        4.7699126851
 H        -4.5295848097        5.2158970661        5.9372092908
 H        -5.7694741091        6.2089539818        0.5565043542
 H        -4.1701625213        5.6440429293        0.8581026293
 H        -6.7263004203        5.6663379196        4.5479313517
 H        -6.9486269588        7.3293707535        4.2041981915
 H        -5.8592885844        6.7899869866        5.5311950263
 H        -4.1599863494        8.2361810088        3.4886054301
 H        -4.0077034470        7.6528845493        2.0244447565
 H        -5.6825373288        8.2970901110        2.4054943335
 H        -5.5997006135        4.3449434511       -0.9326902674
 H        -6.2926892946        3.5746736673        0.5009008967
 H        -4.4368824739        0.1295199942        0.8797419129
 H        -4.2931774251       -0.8119379185       -0.6129929922
 H        -6.1747993368        1.8940175715       -1.1610991223
 H        -5.0969200131        0.6344490780       -1.9570884845
 H        -5.0817903702        2.2098852518       -2.7121330439
 H        -3.3863850528        3.9744235029       -2.4943839701
 H        -2.1614057588        3.4196251631       -1.4990270428
 H        -2.6522358855        2.3005530982       -2.7641796732
 H        -3.2983678313       -2.1811780090        1.1012071614
 H        -1.9823816677       -1.4916485095       -0.0402561172
 H         1.3858843461       -2.5150254455        1.7264271395
 H         1.4354210355       -1.5370011134        0.1651615997
 H        -0.7039547610       -1.8488719670        4.6133626736
 H        -0.9513579396       -0.1669726905        4.3521103472
 H         0.5861553139       -0.7700765282        4.5182140099
 H         0.2290856200       -3.3690687528        2.9754242346
 H        -1.5693555750       -2.9607339907        2.9675336840
 H        -0.7113839394       -3.2368983775        1.5063276915
 H         3.0480965009        0.0510974544        1.9761413632
 H         3.5796499044       -0.8297699912        0.7594131334
 H         6.0343068783       -4.9310490314        2.0073215576
 H         4.2582116540       -4.9792881848        2.1852699483
 H         7.2551284419       -1.3491881861        2.0699779380
 H         6.0647353798       -0.1379335651        2.5568694613
 H         5.9553237135       -0.9638249024        0.8866949202
 H         5.0537840885       -3.8003784146        3.8384626505
 H         6.7743114717       -3.2272164983        4.0122958923
 H         5.3028670302       -2.4260999901        4.6818696405
 H         5.6183546877       -5.0609224170       -0.6517326037
 H         4.9947125282       -6.4714276861        0.2181149432
 H         0.5564319865       -4.7150590441       -1.2324375788
 H         1.5878806826       -3.3985946373       -1.8908164986
 H         4.7828007885       -6.1870006346       -2.5485867060
 H         3.6649293809       -7.4888008169       -3.0787158805
 H         4.4990004308       -7.7177506958       -1.6000417050
 H         2.5574607493       -8.0142421116       -0.4312619752
 H         1.3551109170       -6.8389744755       -0.0656536253
 H         1.2943848539       -7.6919534417       -1.7291756527
 H        -0.0613369250       -4.8335458263       -3.9262301198
 H         0.4471001619       -3.1566889124       -3.8104781582
 H        -2.8314342664       -0.9320147621       -4.8437708940
 H        -1.0540559479       -1.1183360202       -4.7337870251
 H        -2.4884424752       -5.5887803294       -4.2372656691
 H        -4.0606784009       -4.8995535677       -4.0572492015
 H        -3.2342336889       -5.1845942864       -2.5684489096
 H        -3.9966754469       -3.2822169406       -1.9974125483
 H        -3.4065745219       -1.6348127194       -2.3942344800
 H        -4.5163798275       -2.5028352434       -3.5784823284
 H        -1.4878082446       -1.9619833518       -7.3710947091
 H        -2.7573771973       -0.9803322697       -7.3146208111
 H         1.6157620082        2.1550091703       -9.1469767378
 H         0.2161246880        2.5395713034       -7.9498402534
 H         1.8998386846        3.0493400701       -7.5832803065
 H         0.6839105402       -2.2900127081       -6.7733415105
 H         1.4544632765       -1.1771862429       -5.6213103892
 H         2.2275392868       -1.7233743914       -7.2798636518
 H        -0.0475515353       -1.3310426645       -9.2715327797
 H         0.3400588410        0.4192423288       -9.6352623619
 H         1.5787041701       -0.7095529899       -9.4316421977
 Na       -1.3815259727        2.0340528838        1.9936219685
