155

 C         0.0360174017        6.4487129315        2.4757607711
 C        -0.5898140372        5.1009463554        2.8308968508
 C        -0.2967549014        4.4684632435        4.3083426137
 C        -1.5142016473        3.6582563065        4.6876212443
 C        -2.4668481257        4.2961232287        5.6939368161
 C         0.9563099700        3.5866986737        4.0417543313
 C         0.1836177616        5.4442945875        5.3341715279
 O        -1.0786704820        4.4056879814        1.9625408913
 O        -1.8600340025        2.5848362801        4.1963571564
 C        -3.8502363291        4.5978146921        5.0349464096
 C        -3.8661597785        5.8931271608        4.1476129014
 C        -5.1505432708        6.3502047447        3.4922996170
 C        -5.4800625639        5.2198783614        2.3667927791
 C        -4.9462518313        5.4758229709        0.9183633713
 O        -2.8403941060        6.5389390031        4.0105167357
 O        -6.1004223576        4.2519798077        2.6550181788
 C        -6.3748629891        6.3747208606        4.4857558722
 C        -4.9981805392        7.7155885400        2.7296770560
 C        -5.2240606089        4.3022556579        0.0178174775
 C        -4.1835423625        3.2518439217        0.1775005257
 C        -3.9918526709        2.2105021448       -0.9713903059
 C        -2.9926788668        0.9380999716       -0.4906477085
 C        -3.6691620872       -0.3850322838        0.0832403760
 C        -5.3111659194        1.6285005221       -1.5734189129
 C        -3.2086975102        3.0272309842       -2.0850085109
 O        -3.4573159664        3.1444116784        1.1592097330
 O        -1.7784295922        1.1047644551       -0.5820241381
 C        -2.5048471015       -1.2067659803        0.6939554162
 C        -2.0430177179       -0.7465021544        2.0723771421
 C        -0.6377653511       -1.3570775043        2.5604623761
 C         0.4748843270       -0.7395101234        1.7794365644
 C         1.8624472252       -1.3580179770        1.2218287498
 O        -2.6495437764        0.1540330417        2.6503389122
 O         0.4018000560        0.4928937110        1.6895434279
 C        -0.5033374240       -0.9484316035        3.9984910860
 C        -0.8014522193       -2.8838791225        2.4632651569
 C         3.2120966510       -0.7359258987        1.7465507429
 C         3.7607898107       -1.6664823041        2.8465445497
 C         5.2358920727       -2.2690113131        2.5624889444
 C         5.2330870044       -3.1963856128        1.3275734719
 C         5.2766409350       -4.8138130101        1.5138524924
 C         6.2137839911       -1.0825526037        2.4607182232
 C         5.7446919555       -2.9943615511        3.9014596383
 O         3.0045763734       -2.0326880304        3.7177753994
 O         5.1478829784       -2.7719965078        0.1952559955
 C         5.0159353496       -5.6411349051        0.2737589194
 C         3.6140750087       -5.3737008678       -0.3513184480
 C         3.0094491629       -6.2744271269       -1.5393654163
 C         2.3113523128       -5.3477699435       -2.6768029300
 C         0.9933887903       -4.5974665655       -2.1381294241
 O         2.8767981501       -4.6082051477        0.2254540746
 O         2.6758834372       -5.2461033717       -3.8190093675
 C         4.0602757828       -7.1204828726       -2.3204774528
 C         1.8588109278       -7.1403995658       -0.9207950120
 C         0.0234952930       -4.1932625986       -3.2645262838
 C        -1.2869715080       -3.5270097318       -2.5836422036
 C        -2.6570006008       -3.3973944330       -3.5291554146
 C        -2.2870546715       -2.9279581663       -5.0410530236
 C        -1.9444806528       -1.3863152702       -5.2000268439
 C        -3.0495134516       -4.9176613864       -3.6723177240
 C        -3.6777784150       -2.4574537207       -2.8786530767
 O        -1.3379171255       -3.1211549825       -1.4504853353
 O        -2.4067178741       -3.6546239609       -5.9843870787
 C        -1.7438821180       -1.0681969237       -6.6761397393
 C        -0.7902108259        0.1212825967       -6.7916374720
 C         0.6527508581       -0.1061273948       -7.4238344939
 C         1.4865137045        1.2760941239       -7.1829772238
 C         1.2196969384        2.4343842899       -8.0378489322
 O        -1.0931809634        1.2521766155       -6.3957280676
 O         2.1078107412        1.3919313873       -6.2157879425
 C         1.3237603934       -1.2155745939       -6.6613734744
 C         0.6536319039       -0.5385852867       -8.9333890879
 H         1.1005306040        6.4189254322        2.7905903030
 H        -0.1351157039        6.6094359675        1.3555539904
 H        -0.4653667875        7.2306107057        3.0395006303
 H        -2.6709389593        3.5817578789        6.4559825171
 H        -2.1179801897        5.2145776776        6.3035285478
 H         1.7839655006        4.2780777290        3.8176676599
 H         0.8100255184        2.8532446359        3.1609615832
 H         1.2065523096        3.0223006377        4.9593228087
 H        -0.1043968979        6.5109257743        5.0779881792
 H        -0.0399004916        5.2406198591        6.3788077649
 H         1.2897528748        5.5200789389        5.3687121983
 H        -4.2958784820        3.7613522118        4.4647819312
 H        -4.4859811900        4.9288922290        5.8745075791
 H        -5.5233214868        6.2919123516        0.4487056986
 H        -3.8733991254        5.8486873233        0.8781412224
 H        -7.2647668729        5.8751898508        4.1297674399
 H        -6.7830509382        7.4302705956        4.4899927475
 H        -6.0151380706        6.0016373521        5.4326676955
 H        -4.7564710855        8.5526618538        3.4628875362
 H        -4.2141405573        7.7497956685        2.0123512577
 H        -5.9316517392        7.7556142110        2.2460417728
 H        -5.3135968534        4.6924078996       -1.0125138823
 H        -6.2211038117        3.8522449733        0.2881515210
 H        -4.4482773905       -0.1045603660        0.7689773707
 H        -4.1576037765       -0.8270273090       -0.7797359828
 H        -5.7399153402        1.1323123365       -0.7255440625
 H        -5.0750505356        0.9304357947       -2.3247506404
 H        -5.9514256245        2.3215265215       -2.0240180692
 H        -3.6021604976        3.9193379315       -2.3157979530
 H        -2.2320104028        3.4124693162       -1.7085529549
 H        -3.0661523452        2.4762627275       -2.9777964499
 H        -2.8378253522       -2.2185281761        0.6903936033
 H        -1.6003917614       -1.1280449492        0.0811529967
 H         1.9083430724       -2.4197212652        1.2576885280
 H         1.6533527196       -1.0094224475        0.2224584662
 H        -1.4009902571       -1.1458548563        4.6195385684
 H        -0.2181248015        0.1531030379        4.0477954955
 H         0.3331184889       -1.4287603611        4.5020306527
 H         0.1803039988       -3.4020827266        2.5529326253
 H        -1.5961682402       -3.3895699062        3.0822757756
 H        -1.0930429599       -3.0560268348        1.4031091826
 H         3.2811255305        0.3855597320        2.0528909390
 H         3.9156169932       -0.6763415891        0.8929387198
 H         6.2812457982       -4.9551533792        1.9059134104
 H         4.6277941075       -4.9870397914        2.3284954108
 H         7.3058229163       -1.3976642892        2.3116798387
 H         6.1210260812       -0.4153781355        3.2676571281
 H         5.8807973216       -0.5676593893        1.6225510519
 H         5.0375714725       -3.5860815689        4.4207349900
 H         6.6452509867       -3.5731228883        3.5754984888
 H         5.9966148505       -2.2751126286        4.6075939046
 H         5.8859807772       -5.4282456488       -0.4199498182
 H         5.1760022072       -6.6815525381        0.5894889037
 H         0.5201110913       -5.3239327086       -1.5157126475
 H         1.2857528730       -3.6994091297       -1.5333350683
 H         4.8869517125       -6.4386763376       -2.7032731550
 H         3.5879067233       -7.6532021969       -3.1129188603
 H         4.4650564431       -7.8417334245       -1.6876117289
 H         2.2424239173       -7.9019724682       -0.2390616172
 H         1.1987987348       -6.4925567500       -0.3558706672
 H         1.2359811235       -7.5237572798       -1.6893547693
 H        -0.1743529876       -5.0005246055       -3.9160288446
 H         0.4860039304       -3.3835253905       -3.9008925160
 H        -2.5209310256       -0.6120076231       -4.6143456366
 H        -0.9666510162       -1.4553814920       -4.7385207015
 H        -2.1353838573       -5.4286056608       -3.9281542313
 H        -3.7765599427       -5.1346075928       -4.4324010741
 H        -3.4596869763       -5.2327607157       -2.7068918488
 H        -4.1475887709       -2.9159425339       -2.0199235561
 H        -3.1220681069       -1.6280997006       -2.4799023492
 H        -4.4591225009       -2.1305002687       -3.6076776790
 H        -1.4365294474       -1.9711111203       -7.2211975655
 H        -2.6355127201       -0.8285065054       -7.2861384736
 H         1.0912197454        2.0850979560       -9.0421378237
 H         0.3166793558        2.7941375600       -7.6041439540
 H         2.0065147295        3.1455543534       -7.9316624226
 H         0.6829498659       -2.1820376184       -6.7639660571
 H         1.4584233416       -1.0344918055       -5.6556233294
 H         2.2793492155       -1.4786593796       -7.1840276002
 H         0.2425036671       -1.5241079034       -9.0056236026
 H         0.1671155592        0.1315201599       -9.7238568059
 H         1.7112860278       -0.6212679644       -9.2980294163
 Na       -1.6053953667        1.9627733312        1.7744888439
