155

 C         0.0323445445        6.5704416410        2.5344461530
 C        -0.3816273131        5.1118286168        2.7733877171
 C        -0.2678629344        4.4574851902        4.2010212101
 C        -1.4758490558        3.6209602153        4.5570199407
 C        -2.5772393224        4.0649687979        5.4370711481
 C         0.8910611739        3.4017340152        4.1420475490
 C        -0.0110564398        5.5811339862        5.1614826551
 O        -1.0035897533        4.4913056618        1.9358529164
 O        -1.5501788151        2.4678419269        4.1514369504
 C        -3.8905361881        4.4998597916        4.8619875391
 C        -3.8700400436        5.8133446411        4.1888297977
 C        -5.2935440930        6.3359538275        3.4536301798
 C        -5.5010459282        5.2632597475        2.2404923688
 C        -4.8985680069        5.5577033972        0.8736949807
 O        -2.8900614738        6.4839837878        4.0419265766
 O        -6.1468056111        4.2136903302        2.4083300541
 C        -6.5158303457        6.1761287854        4.3868380897
 C        -5.1454150573        7.8229971638        2.9474577928
 C        -5.1150942420        4.3348962749       -0.1452248405
 C        -4.1398815036        3.1779319205        0.1518730867
 C        -4.0256565416        2.1568966230       -1.0072043662
 C        -2.9856400588        1.0840479200       -0.5925673165
 C        -3.6073525037       -0.2648483714        0.0787603018
 C        -5.4991845662        1.6395748069       -1.4374621558
 C        -3.3732102911        2.7437455434       -2.2855231666
 O        -3.6146125352        3.1023329947        1.2389079502
 O        -1.7994492273        1.2721899719       -0.5048216943
 C        -2.5573092574       -1.3274712229        0.5501350075
 C        -1.9989275924       -0.8465674652        1.8870477441
 C        -0.6264152214       -1.3870219440        2.4509926395
 C         0.4849541325       -0.4987544735        1.7839008950
 C         1.6447606693       -1.2796704329        1.2409447305
 O        -2.5688036002        0.0247222838        2.4933669254
 O         0.4744782888        0.7060158374        1.7483978225
 C        -0.6480080202       -1.0839548552        4.0540280224
 C        -0.4721320990       -2.8880919132        2.3227910911
 C         2.9966709485       -0.9107707767        1.7369401139
 C         3.5844492962       -1.8377368484        2.8229185898
 C         5.1215748763       -2.3846461125        2.6070955336
 C         5.1698501883       -3.2692142768        1.3644717056
 C         5.3091769027       -4.7616918287        1.4861489916
 C         6.0383314246       -1.1455948653        2.5217708485
 C         5.4258637560       -3.1268916881        3.9293366766
 O         2.9947323842       -2.1719723640        3.7971259280
 O         5.0424036710       -2.5917979389        0.3846853400
 C         4.9422027723       -5.5278700254        0.1696195931
 C         3.5280542548       -5.3750124477       -0.2963377587
 C         3.0678915345       -6.3390215037       -1.4706247107
 C         2.3543886692       -5.3071001610       -2.4641834549
 C         0.9823900275       -4.6840795829       -2.1087088687
 O         2.8262202879       -4.4706768124        0.0989719511
 O         2.8871954955       -5.0286837733       -3.5092432449
 C         4.1782984958       -7.1135781895       -2.1906692540
 C         2.0856778916       -7.4222424845       -0.8189311022
 C         0.1669701468       -4.2202449713       -3.3067335734
 C        -1.1627354518       -3.6262968012       -2.7438222574
 C        -2.5067584788       -3.4881074891       -3.5610087183
 C        -2.0937045779       -3.0370533998       -5.0148951648
 C        -1.6958403796       -1.4769048682       -5.1106003538
 C        -3.2936051851       -4.8652840206       -3.6596692833
 C        -3.5133988486       -2.5428036665       -2.8706791167
 O        -1.1934500738       -3.0546595849       -1.6741887690
 O        -1.9184266794       -3.8318000470       -5.9315209820
 C        -1.6650315037       -1.0371088070       -6.5653751392
 C        -0.8295981650        0.2454717378       -6.6652433580
 C         0.6500305745        0.0506460433       -7.1258870635
 C         1.4093373019        1.3579928353       -7.0941267838
 C         1.0983773556        2.5027252651       -8.1030048716
 O        -1.3053422433        1.3226686917       -6.6203342503
 O         2.2963793767        1.6076594176       -6.2003690770
 C         1.4078981143       -0.9702146187       -6.4285288207
 C         0.4334378165       -0.2979808593       -8.6885672311
 H         0.6539543762        6.9976594861        3.3291178379
 H         0.5594796802        6.5866245767        1.5724288430
 H        -0.8778350878        7.2013911974        2.3914457760
 H        -2.8345432285        3.1701065107        6.0814713129
 H        -2.3726269979        4.8159967174        6.1623841102
 H         1.8644126875        3.8153798881        3.9455437089
 H         0.6331784579        2.5847782125        3.5620541155
 H         0.9057283850        3.0196129763        5.1656842123
 H        -0.8901568069        6.1466287879        5.3557780530
 H         0.4043667912        5.1598465953        6.0583127222
 H         0.8112066068        6.2178539489        4.9659508995
 H        -4.2495861693        3.9144362474        3.9651538015
 H        -4.6861540511        4.4676904284        5.6151514981
 H        -5.2063801155        6.5204460560        0.4277276918
 H        -3.8374169360        5.6926926285        1.0304536095
 H        -7.3835404754        6.0655740250        3.7382534584
 H        -6.8186384765        7.1055861216        4.8140465645
 H        -6.3864981491        5.4037463934        5.1601639651
 H        -5.5540210299        8.5038534382        3.6942212868
 H        -4.0510990956        7.9306700039        2.7870851656
 H        -5.7431897738        8.0068698707        2.0054951499
 H        -5.0301635786        4.6847179764       -1.1610055048
 H        -6.1070153970        3.9319554273       -0.0648216533
 H        -4.2072891782        0.1221184853        0.9165425120
 H        -4.2933918095       -0.6970271108       -0.6657440297
 H        -5.7460173292        0.7508269954       -0.8363558390
 H        -5.5691928566        1.4730319189       -2.5453953963
 H        -6.3253378145        2.3516953183       -1.1962178020
 H        -3.7198175461        3.7310258810       -2.7337014674
 H        -2.3363410228        3.0284380078       -2.1193926439
 H        -3.3545480684        1.9664708643       -3.0755934433
 H        -3.0149566708       -2.3593165975        0.3899788333
 H        -1.6468791381       -1.2356211154       -0.1010411219
 H         1.3672029822       -2.2958955453        1.5183153602
 H         1.5842793581       -1.2109134668        0.1472079386
 H        -1.6226770837       -0.7523145913        4.4694757497
 H         0.0218638732       -0.2977379748        4.2937877257
 H        -0.2879994505       -1.9616221305        4.6792870256
 H         0.2798476020       -3.1857435084        3.0516839117
 H        -1.3682538471       -3.4168493015        2.7162068256
 H        -0.3208229276       -3.3271008950        1.3194627564
 H         3.0783665701        0.0852539693        1.9071113418
 H         3.6557911162       -1.0557392531        0.8815987583
 H         6.3361052706       -4.9443382607        1.8673662520
 H         4.6493629343       -4.9558639506        2.3826291467
 H         6.9958720062       -1.5207723994        2.4277572487
 H         5.9386367635       -0.6005533638        3.4680821577
 H         5.8220726958       -0.3753623619        1.7131090406
 H         4.5497436112       -3.8074489290        4.2223623690
 H         6.3396849657       -3.6683086836        3.8774401903
 H         5.3732040011       -2.3085043300        4.7708916573
 H         5.6037601536       -5.2770212991       -0.6012989827
 H         5.2200326627       -6.5295635935        0.3784254726
 H         0.3835676423       -5.4559571276       -1.5267364925
 H         1.1611011356       -3.8305365604       -1.4821251644
 H         4.7236411812       -6.4289130132       -2.7467800625
 H         3.6663530263       -7.7591516697       -2.9394226728
 H         4.8889982350       -7.6863025159       -1.4986880009
 H         2.7517097789       -8.1631964062       -0.4119637322
 H         1.3669932823       -7.0649166699       -0.0961038402
 H         1.3811422441       -7.8385677049       -1.5720632803
 H        -0.1686357858       -5.1571137125       -3.8928878862
 H         0.5964704571       -3.5508175474       -4.0380392263
 H        -2.3793943530       -0.9057303234       -4.5511492289
 H        -0.7597257182       -1.3570598865       -4.5300197266
 H        -2.7925722942       -5.6265833674       -4.3151926358
 H        -4.3013938502       -4.6058318338       -4.1129937350
 H        -3.4864042711       -5.2066457391       -2.6624233861
 H        -3.5882796132       -2.8092395431       -1.8315336682
 H        -3.0673568519       -1.5697901050       -2.9020946650
 H        -4.5394687076       -2.6836594717       -3.2243757235
 H        -1.1401518192       -1.8673965019       -7.0445261649
 H        -2.5622102963       -0.9028770917       -7.1725169761
 H         0.9658675972        2.1265072667       -9.1178428286
 H         0.2372636449        3.0541827171       -7.6539518684
 H         1.9814942718        3.1718705911       -8.0163010311
 H         1.0818800579       -1.9330569807       -6.5708511433
 H         1.3058701512       -0.6102497444       -5.3436185977
 H         2.4456046183       -0.9134472050       -6.5970435355
 H         0.1018033587       -1.3541800740       -8.7669068225
 H        -0.3165682138        0.2375308620       -9.1535593529
 H         1.3350291746       -0.1539452919       -9.2354324961
 Na       -1.4507174502        2.1561995274        1.8671670859
