155

 C        -0.2886380763        6.6201533394        2.6545848835
 C        -0.3986463785        5.1179324039        2.8026285759
 C        -0.3040041753        4.5401055597        4.2967595869
 C        -1.4566353149        3.5093677677        4.5791896264
 C        -2.6827487268        3.9409187420        5.3541795317
 C         0.9498183296        3.6730875126        4.2184647319
 C        -0.1699862480        5.7394011850        5.2806674015
 O        -0.4714514702        4.3723304224        1.8344720301
 O        -1.5078883134        2.4675004028        3.9506120891
 C        -3.9991156013        4.1608080323        4.5545738164
 C        -4.0060824231        5.5973990714        3.9578959237
 C        -5.3704074469        5.9917731293        3.3622708546
 C        -5.5817914133        5.2126502221        1.9852524028
 C        -4.7664535851        5.6371249955        0.7834047817
 O        -3.0798124474        6.3593799970        3.9306880354
 O        -6.3777158382        4.3270912231        1.9439764567
 C        -6.5272648796        5.8658906945        4.2883352923
 C        -5.2836615742        7.5496454864        3.0862038521
 C        -4.7593679134        4.6129172718       -0.3330263231
 C        -4.0499225346        3.3302553394        0.0534091403
 C        -4.1855372870        2.1080621720       -0.9231599546
 C        -3.1858315139        1.0904542446       -0.4061018552
 C        -3.6036552193       -0.3906437112       -0.1009412829
 C        -5.6665867402        1.5942748633       -1.1239136017
 C        -3.6635263030        2.6040900675       -2.2652540025
 O        -3.4609764582        3.2409146808        1.1307660360
 O        -2.0201854945        1.3592693779       -0.3136304441
 C        -2.4487626983       -1.2525181233        0.4050806843
 C        -2.0280752049       -0.7447901978        1.7779838086
 C        -0.6621999430       -1.4273454422        2.3513275406
 C         0.4621274272       -0.5205304012        1.7737585124
 C         1.6243569414       -1.1322507722        0.9947037664
 O        -2.6273230729        0.1911528772        2.2892873395
 O         0.4974710184        0.6513365540        2.0960053969
 C        -0.5817404195       -1.2154662353        3.8484121301
 C        -0.7091426547       -2.9165887726        2.0568810330
 C         3.0421210573       -0.8014646487        1.5964344164
 C         3.3496545199       -1.8652865563        2.7303857306
 C         4.8428261417       -2.4279400767        2.9474217429
 C         5.0980787635       -3.1321422052        1.5176667466
 C         5.3060813339       -4.6377977069        1.5602164172
 C         5.7081947630       -1.1334725403        3.0309508902
 C         4.8868571424       -3.3064410533        4.2660009658
 O         2.4884299744       -2.2824625360        3.3893590412
 O         5.1722175095       -2.4682870697        0.5375134036
 C         5.1515002041       -5.2705003898        0.1865603038
 C         3.6522343174       -5.3431477533       -0.2324645855
 C         3.2325329910       -6.3334185183       -1.4393848292
 C         2.3434843145       -5.4725540430       -2.3083302325
 C         0.7712346483       -5.4802915018       -1.9685953938
 O         2.7888438313       -4.9049398592        0.4644751641
 O         2.6744988295       -4.7983768971       -3.2655999727
 C         4.3883607364       -6.9697066040       -2.2970728645
 C         2.4415371970       -7.4077434483       -0.7479898764
 C         0.0556696952       -4.7464314018       -3.1166410951
 C        -1.0089850035       -3.7546686866       -2.6752360013
 C        -2.3066447832       -3.6763628044       -3.6294143617
 C        -1.7837878326       -2.9704141801       -4.9986815826
 C        -1.6023849258       -1.4534761728       -5.0020469737
 C        -2.8244400402       -5.0827873064       -3.8266661199
 C        -3.4899257977       -2.7744328711       -3.0091598026
 O        -0.7796840440       -2.9971528495       -1.7636135460
 O        -1.3254535850       -3.7420726473       -5.8082100863
 C        -1.4587365604       -0.9826731948       -6.5391726424
 C        -0.7831820798        0.3751115475       -6.7155008623
 C         0.6425555862        0.3850544818       -7.1384641351
 C         1.2919441373        1.7743778017       -7.0168572061
 C         0.7005812510        2.9649419308       -7.9291037835
 O        -1.4510297214        1.3698539766       -6.5980394989
 O         2.2438566268        2.0044409735       -6.3230714011
 C         1.4664923249       -0.5226640291       -6.1122877845
 C         0.9532751241       -0.1291026965       -8.6174878513
 H         0.7345045388        6.9535370412        3.0239306977
 H        -0.2806819509        6.9424990775        1.5114181028
 H        -1.1157843755        7.1388968202        3.1602157630
 H        -2.9429856462        3.2840688435        6.1946888316
 H        -2.4551511390        4.9753159245        5.7524315796
 H         1.7872994271        4.2902037604        3.9036925837
 H         0.6717843741        2.8681093839        3.5216455285
 H         1.2642667503        3.2147655493        5.2109026841
 H        -1.0630853374        6.4206826870        5.2307311907
 H         0.0297486335        5.5481731278        6.3336750851
 H         0.7335923429        6.2451914272        4.8722316745
 H        -3.9739942190        3.4379490675        3.7017214250
 H        -4.9313511364        3.8134192836        4.9964924372
 H        -5.1513620400        6.6370764538        0.4183525835
 H        -3.7065350618        5.8874134083        0.9726224072
 H        -6.7272316243        6.8343799286        4.7628114801
 H        -6.4315384592        5.0220633821        4.9930146974
 H        -7.4425936748        5.5081086096        3.6986982858
 H        -4.7880752014        8.1456351646        3.8995735661
 H        -4.8640271869        7.6093697935        2.1524239914
 H        -6.2273420370        8.0195659664        3.0733857256
 H        -4.1946197536        4.9955597141       -1.1887686799
 H        -5.7659289039        4.5012024651       -0.7370876956
 H        -4.3593949148       -0.3582580893        0.6490318538
 H        -3.9974396872       -0.7306238711       -1.0615013881
 H        -6.4058421987        1.8461248456       -0.4043473417
 H        -5.6950855332        0.5353406305       -1.2632668278
 H        -6.0346647619        2.0122144571       -2.0031483001
 H        -4.3677051092        3.2416017882       -2.7188331732
 H        -2.6171326429        3.0619018928       -2.3598569510
 H        -3.5732977689        1.8273030455       -2.9910906585
 H        -2.7516402901       -2.3432346609        0.4431151893
 H        -1.6041748109       -1.3356210971       -0.2806718418
 H         1.5640078515       -2.2121364511        1.0081557574
 H         1.5984303825       -0.8641262450       -0.0352685885
 H        -1.4901169960       -0.6823476188        4.2321225549
 H         0.0280146301       -0.3271278687        4.0025477780
 H        -0.1716171265       -2.0552745824        4.5181936707
 H        -0.0543516052       -3.5508072115        2.6302398511
 H        -1.6365538309       -3.3608145248        2.3733811204
 H        -0.5482768799       -3.0649899951        0.9390237851
 H         3.0693949411        0.0877007914        2.1399172048
 H         3.7383683474       -0.7125991407        0.7419618388
 H         6.3512477239       -4.7399393965        1.9472000309
 H         4.6555576843       -5.0681047656        2.3626688017
 H         6.7491595283       -1.4316406160        3.2550228335
 H         5.3715720449       -0.5356666186        3.7928998615
 H         5.7802409212       -0.5571590780        2.1132194013
 H         3.8924025196       -3.8348311660        4.2167381410
 H         5.6286891964       -4.0439161085        4.4063581589
 H         4.9755788874       -2.4842325805        5.0546023433
 H         5.6533075159       -4.6559898947       -0.4949611721
 H         5.7350829011       -6.1386391168        0.1526442065
 H         0.4000066398       -6.5494814576       -1.9028141914
 H         0.6187347065       -5.0656296897       -0.9885847194
 H         5.1974012799       -6.3473858094       -2.5874176037
 H         3.9362251238       -7.3746814726       -3.1879898408
 H         4.8217901146       -7.7586878624       -1.6773672036
 H         3.1693811208       -8.0300844559       -0.2155902136
 H         1.7517383755       -7.0028032258       -0.0218516714
 H         1.8648304041       -8.0811982103       -1.3910831797
 H        -0.3921203972       -5.4360617905       -3.9190256934
 H         0.7855270616       -4.1529569440       -3.6865088753
 H        -2.3397152815       -0.9007662343       -4.5205602470
 H        -0.7151142460       -1.3924829444       -4.3454405779
 H        -2.1621998729       -5.4685529433       -4.6441170829
 H        -3.8585650788       -5.0360287897       -4.3110528453
 H        -2.6998853502       -5.7309175243       -3.0253438309
 H        -4.1217388404       -3.3567076201       -2.4337861231
 H        -3.0754306033       -1.9817555917       -2.4817412488
 H        -4.1424153728       -2.4009763445       -3.8258040324
 H        -0.9774205253       -1.7239850615       -7.1670208650
 H        -2.4559025932       -0.6620924604       -6.8688882269
 H         1.1993448094        3.0923486237       -8.8505509490
 H        -0.3480727263        2.7770767776       -8.0397754578
 H         0.8238053171        3.8975096339       -7.3267211616
 H         1.2762377607       -1.5359621145       -6.3186514371
 H         1.3561672864       -0.1986184096       -5.0900356652
 H         2.4784449863       -0.2601396454       -6.2952282830
 H         0.4341376587       -1.1100078258       -8.8453948319
 H         0.5910934861        0.5522394499       -9.3409410792
 H         2.0381870752       -0.2808560214       -8.6606569025
 Na       -1.2783634819        2.0214090588        1.7839595628
