155

 C        -0.1374503396        6.6931676689        2.6618682927
 C        -0.4141947295        5.1942013595        2.8758096484
 C        -0.4236312266        4.6844047750        4.4453887016
 C        -1.8071028678        3.8474830347        4.6818012209
 C        -2.9080182912        4.2933168428        5.6983878801
 C         0.8199226912        3.7297742998        4.6310494467
 C        -0.4014009758        5.8904696146        5.4005919541
 O        -0.4964326010        4.4485271573        1.9381334848
 O        -1.8125342050        2.7900027643        4.1208328695
 C        -4.2345768779        4.2173455165        4.9772497540
 C        -4.3014505507        5.2025407971        3.8495020485
 C        -5.6592746339        5.7002665697        3.0896105200
 C        -5.5646186599        5.2504986419        1.5741383329
 C        -4.5867418583        5.8933611643        0.6899336521
 O        -3.2762794719        5.7771543765        3.4237893633
 O        -6.2945232557        4.3703153546        1.1757653696
 C        -6.7794953509        5.0146726244        3.7238980812
 C        -5.8182492980        7.2557352729        3.1797884593
 C        -4.3215191551        4.9832779776       -0.5930478990
 C        -3.7297086984        3.6199665176       -0.1571661404
 C        -4.3415600375        2.2497940685       -0.7736508386
 C        -3.4176368134        1.0599471922       -0.3932608065
 C        -4.0132747556       -0.3938152385       -0.2359536476
 C        -5.7218260214        1.9629775138       -0.2857205040
 C        -4.4135799707        2.3958431901       -2.3056573408
 O        -2.9300926596        3.5736138266        0.7329688833
 O        -2.2352377407        1.2306276473       -0.2360387842
 C        -2.7752123787       -1.2645259257        0.1655187451
 C        -2.2189277217       -0.8110429262        1.4883822135
 C        -0.8498395303       -1.4795225919        1.9743036738
 C         0.4897304670       -0.6763843591        1.3893059764
 C         1.6939579603       -1.2685588228        0.5904816749
 O        -2.7718698530        0.1391794449        2.0281771148
 O         0.4457885224        0.5299222039        1.4677887441
 C        -0.7909056323       -1.3328078767        3.4969127040
 C        -0.7934807882       -2.8369180236        1.4420914847
 C         3.0673468617       -1.1373826606        1.3365533811
 C         3.0480153269       -1.9953574159        2.5583845030
 C         4.4251775738       -2.2332118963        3.2540948853
 C         5.2211156217       -3.1715368175        2.2051265737
 C         5.0779621037       -4.7367576948        2.1959701012
 C         5.0668425887       -0.8141167767        3.3202010923
 C         4.1807867126       -2.9232571540        4.5706871740
 O         2.0648532812       -2.7791894889        2.7323465632
 O         5.8980845375       -2.5402650008        1.3516037678
 C         5.1734715655       -5.2324770359        0.7509251905
 C         3.7524834047       -5.7202164176        0.1368447009
 C         3.6062274059       -6.4568128472       -1.3040200749
 C         2.6536201284       -5.4544965626       -2.2278794278
 C         1.2367947439       -5.1348138822       -1.7614191127
 O         2.7417439581       -5.4060211047        0.7663570239
 O         3.0173515813       -4.9329695970       -3.2704286208
 C         4.9715172486       -6.6313650077       -2.0565520515
 C         2.7062026007       -7.6772703466       -1.1851175475
 C         0.3393908646       -5.1118387009       -3.0221010399
 C        -0.8911529128       -4.1976671043       -2.8204689588
 C        -1.9363338728       -3.9630064169       -3.9515626475
 C        -1.0975401778       -3.2886552639       -5.1244924676
 C        -1.4805414019       -1.8507068102       -5.5548462954
 C        -2.6202986628       -5.2314996350       -4.4398677540
 C        -3.0726109599       -3.0086858127       -3.2786278060
 O        -1.0049185869       -3.7266323601       -1.6943897571
 O        -0.2474936432       -3.9537347637       -5.6597530986
 C        -0.4879121807       -1.2190715216       -6.6702477129
 C        -0.4219160782        0.3318132549       -6.3257184439
 C         0.9802327592        1.0555037540       -6.8903032939
 C         0.8728921586        2.5620370540       -6.8000074707
 C        -0.0889819893        3.2652936000       -7.7135048544
 O        -1.3469928467        0.8774829132       -5.6873335594
 O         1.6215044174        3.1135605886       -6.0042645467
 C         2.1775018854        0.5728633500       -6.1059916803
 C         1.0579696234        0.7126813197       -8.4571284546
 H        -0.4648868129        7.0540227367        1.7065069913
 H        -0.4621844476        7.2817652516        3.4366897857
 H         0.9695417205        6.6512653686        2.6976321538
 H        -2.8861127673        3.5820836979        6.5202020151
 H        -2.9616617271        5.4014806319        6.0318571440
 H         1.7264308900        4.1674735593        4.3925963296
 H         0.7304363773        2.8895421106        3.9251509846
 H         0.7673777274        3.3936573333        5.6317369074
 H        -1.1500483146        6.5890115238        4.9647775569
 H        -0.6319215624        5.6285414722        6.3972283396
 H         0.5629688861        6.3877909918        5.4095213828
 H        -4.3331036884        3.2088222879        4.5036564263
 H        -5.1178638638        4.2493795057        5.5758773501
 H        -4.9894180414        6.8467585700        0.3155151549
 H        -3.5967391492        6.0420625328        1.1273902483
 H        -7.7293678975        5.4410152755        3.4875812068
 H        -6.8243252108        5.1229579516        4.8543970014
 H        -6.7653133399        4.0039529266        3.4816269660
 H        -5.3501394484        7.8679564787        3.9915348556
 H        -5.3241689835        7.6691015714        2.2807254781
 H        -6.8412523351        7.4070328683        2.9246349410
 H        -3.6732749440        5.4887066357       -1.3362331250
 H        -5.3321048659        4.8425766926       -1.0313836242
 H        -4.7704968866       -0.4278698550        0.5032198655
 H        -4.4195552405       -0.6653600793       -1.2406537898
 H        -5.8342353701        1.6078253141        0.7826581881
 H        -6.1711281183        1.0835020299       -0.8485847462
 H        -6.4679807009        2.7626201546       -0.4547597638
 H        -4.9098014505        3.2807098251       -2.6321760375
 H        -3.5073254446        2.4123153482       -2.8367410857
 H        -5.0011344110        1.5690402156       -2.7627972765
 H        -3.0367300359       -2.3312997385        0.1745640890
 H        -2.0432950280       -1.3609403355       -0.5971210910
 H         1.6978518676       -2.3107737869        0.3018641965
 H         1.8817855095       -0.6695738026       -0.3328780657
 H        -1.6379059925       -1.5630701436        4.0627426917
 H        -0.3556948026       -0.3398146401        3.5630273953
 H        -0.0055490098       -1.8268625501        3.9170856758
 H         0.2201522024       -3.3103571596        1.4949386185
 H        -1.5858293623       -3.5083479231        1.7852294143
 H        -0.8520973743       -2.8432550309        0.3267150308
 H         3.1934056970       -0.0243982891        1.5847451696
 H         3.7935055051       -1.5834727737        0.5793335026
 H         5.9226410614       -5.1863374270        2.7131096105
 H         4.1377295345       -4.9798052043        2.6356848124
 H         6.0702350910       -0.9282755276        3.8570633289
 H         4.5149526703       -0.1050328044        3.9486117186
 H         5.2369261989       -0.3316007225        2.3798125690
 H         3.3711777698       -3.6029657226        4.4852665148
 H         5.1345740394       -3.4009961207        4.8979228700
 H         3.8625771159       -2.2456156818        5.2414157340
 H         5.5642921156       -4.3948016032        0.0600747351
 H         5.9960490186       -5.9914699359        0.7673647192
 H         0.6938504907       -5.7974719917       -1.0544507403
 H         1.2105033689       -4.1571093446       -1.3139085223
 H         5.4036789690       -5.6454834928       -2.4772432267
 H         4.9668725802       -7.3493503854       -2.8553573527
 H         5.6833020276       -7.0701044229       -1.3987167740
 H         3.2465511241       -8.5865005404       -0.7896994894
 H         1.8934730679       -7.5700563835       -0.4472659442
 H         2.2976588332       -8.0390572295       -2.1241165143
 H         0.0209981534       -6.1555885129       -3.2787788400
 H         0.8503932461       -4.7399221692       -3.8824104955
 H        -2.5424568241       -1.8259675090       -5.7567431596
 H        -1.1892532686       -1.3305140169       -4.5767491148
 H        -1.9428200343       -5.5644718797       -5.1916776500
 H        -3.5753929132       -5.0982922625       -4.9238158027
 H        -2.7775273773       -6.0218333881       -3.7253714170
 H        -3.3892303614       -3.4307424217       -2.2780096697
 H        -2.7324237725       -1.9296553345       -3.1105170527
 H        -3.9127936490       -2.9271712499       -4.0136073023
 H         0.5141706400       -1.6807073339       -6.6092135691
 H        -0.8484829572       -1.5121966896       -7.6897733800
 H        -0.5595443224        4.1693221783       -7.2978715154
 H         0.5396918457        3.7140795576       -8.5299252411
 H        -0.8525658993        2.5859324939       -8.1646310860
 H         1.9657361518       -0.5314899995       -5.8637450415
 H         1.9930456673        1.0451860103       -5.1903242951
 H         3.1282216475        0.8047083276       -6.6435248820
 H         0.9225632984       -0.3312042839       -8.5806606448
 H         0.2330196528        1.2263436389       -8.9646254743
 H         1.9680551936        1.1173910239       -8.9069768907
 Na       -1.1756442028        2.0703860353        1.9886826953
