155

 C        -0.5757108252        6.0063677426        2.7751414122
 C        -0.6593452762        4.4862495074        2.8821528578
 C        -0.7051323676        3.8494770290        4.3127635029
 C        -2.3404129091        3.6432472734        4.3088521104
 C        -3.2203068241        4.4651473236        5.2538724943
 C        -0.0428682154        2.4878587287        4.2196481211
 C        -0.4102642274        4.6527813691        5.5490636139
 O        -0.8274589756        3.7771217308        1.9165893487
 O        -2.9171038087        2.9112675673        3.5100910498
 C        -4.6017285837        4.7868176633        4.6131415071
 C        -4.6376543227        6.0368053804        3.6742562663
 C        -5.8756413191        6.3240803038        2.9109557122
 C        -6.0283823138        4.9899943595        1.9160483039
 C        -5.3431071321        5.2599185756        0.5902980213
 O        -3.5904138218        6.7021723870        3.5209323682
 O        -6.6149695245        4.0338002152        2.3729759603
 C        -7.1473593191        6.3242042597        3.8640946705
 C        -5.8013153667        7.6859904986        2.1452005030
 C        -5.4123953078        4.0321813668       -0.3831880559
 C        -4.1317041634        3.2015073231       -0.2675831924
 C        -3.4994891586        2.3958206510       -1.6558887542
 C        -2.6412083410        1.1587752210       -1.1129635034
 C        -3.3625420365       -0.2022558153       -1.0647909337
 C        -4.7212688576        1.9377780562       -2.4917631991
 C        -2.6079168783        3.4769152883       -2.3458544946
 O        -3.5261404919        3.2196784843        0.7736162309
 O        -1.4982546967        1.2953798743       -0.6813951901
 C        -2.6323478817       -1.3613468464       -0.2786856523
 C        -2.5853382488       -1.0266479553        1.1603556140
 C        -1.4660262966       -1.8588582756        1.8788452114
 C        -0.1364543282       -1.0615818023        1.5512962409
 C         1.0842279836       -1.6540532678        0.7683708972
 O        -3.3250646352       -0.2698938184        1.7345438662
 O        -0.0733860713        0.0649247379        1.9471659827
 C        -1.7316330157       -1.8948353185        3.4611226282
 C        -1.2929040406       -3.2650813295        1.3658494399
 C         2.4308688232       -1.1976602014        1.3444252308
 C         2.7100312207       -1.7999687277        2.7709666314
 C         4.1833591143       -2.0532120127        3.2971663326
 C         4.6263528926       -3.3389960985        2.4279207980
 C         4.6493245917       -4.6768083666        3.1443068726
 C         5.0334661506       -0.8339898685        2.9170539437
 C         4.1398051901       -2.3377611646        4.7699146991
 O         1.7898737216       -1.8953847824        3.5221693031
 O         4.4820562772       -3.2594228816        1.2610101829
 C         4.9632004686       -5.7647342199        2.0733866339
 C         3.8048955408       -5.7443212028        0.9422022408
 C         4.1632395183       -6.3170136110       -0.4738939117
 C         3.4316323957       -5.3897527630       -1.5787238367
 C         1.8762230873       -5.3800339851       -1.8209226562
 O         2.7060572316       -5.2811088771        1.1681567189
 O         4.0832678335       -4.6758877537       -2.2988992287
 C         5.7411956106       -6.2736745457       -0.7401854570
 C         3.6018068254       -7.7327710655       -0.5251210127
 C         1.7094630738       -4.9874008353       -3.3181163284
 C         0.2063915761       -4.5569593882       -3.6439269443
 C        -0.3376670833       -4.4552055773       -5.2347743452
 C         0.0425053312       -3.0293607857       -5.8318032604
 C         0.0907136829       -1.7649694696       -4.9572977023
 C         0.1858930920       -5.6508781174       -6.0756615016
 C        -1.8893352569       -4.3574699645       -5.2962915037
 O        -0.5959377307       -4.2215640144       -2.8059969728
 O         0.3308958657       -3.0609112449       -7.0139108124
 C         0.8603874010       -0.6711610415       -5.7553071523
 C         0.1442242262        0.7648886235       -5.3951787562
 C         0.6364635078        2.0867932687       -6.0680445512
 C        -0.4082196904        3.1648797483       -6.1572545021
 C        -1.8563011369        2.7335778547       -6.6544513111
 O        -0.6339934523        0.8150519294       -4.4720643206
 O        -0.1874002702        4.3214401062       -5.9798832034
 C         1.9710672765        2.5081960037       -5.4218360997
 C         1.0669484668        1.8318635254       -7.5279778448
 H         0.2425104567        6.2098179283        2.0807321682
 H        -1.4791439944        6.5179286407        2.3163712751
 H        -0.3987153277        6.4179446937        3.7086799433
 H        -3.2792748176        3.9009915329        6.2072194990
 H        -2.6638583763        5.4303317339        5.5881939270
 H         1.0702876694        2.5361354269        4.3386281177
 H        -0.0496183928        2.0802613383        3.2032443272
 H        -0.3836589527        1.7633151662        5.0056300663
 H        -0.9519791930        5.6241758840        5.6763322535
 H        -0.6681928327        4.1147379488        6.4414733388
 H         0.6489482236        4.7961878224        5.6521142763
 H        -4.8473917540        3.8378438382        4.2101328791
 H        -5.2310363151        5.1148262090        5.4791341278
 H        -5.7963983972        6.1244364010        0.1234110734
 H        -4.4147996717        5.6350626264        0.8833444210
 H        -7.9411418432        5.6125567845        3.5423498015
 H        -7.6992011200        7.2660482400        3.5769290668
 H        -6.8864480870        6.2459307934        4.9044137419
 H        -6.1679108820        8.4320589160        2.7737207218
 H        -4.7260157707        8.0559868097        1.9504847861
 H        -6.4100890858        7.6371882689        1.2068121575
 H        -5.5906458818        4.3297865934       -1.4215022699
 H        -6.2766024337        3.4464515077       -0.1299406089
 H        -4.4385938844       -0.0417537050       -0.6778453063
 H        -3.5117132034       -0.5032509429       -2.1122106732
 H        -5.3872007296        1.3707499157       -1.8626790628
 H        -4.3220376026        1.4047043708       -3.3256005209
 H        -5.2269940173        2.8191116593       -2.8249805128
 H        -3.2637434443        4.3641696595       -2.5957084725
 H        -1.9075740394        3.8217404441       -1.5619046589
 H        -2.1869898659        3.0235673459       -3.2546204249
 H        -3.0895796308       -2.3390082469       -0.4031242935
 H        -1.5899522250       -1.3620894129       -0.6511311511
 H         0.9156194341       -2.7388913432        0.7256668869
 H         0.9278557868       -1.0870028366       -0.2149820771
 H        -2.6546085044       -2.5427551267        3.5696263809
 H        -1.7867623016       -0.8067297069        3.8016585342
 H        -0.8914374686       -2.3397006579        4.1040960980
 H        -0.4853214325       -3.7990606874        1.9046652413
 H        -2.0722168404       -3.9230510753        1.6065303982
 H        -1.0161449949       -3.5085543249        0.3823115604
 H         2.1889561555       -0.1635734668        1.6753035843
 H         3.2644695640       -1.2147329753        0.5996194288
 H         5.3905087789       -4.8253114005        3.8799565089
 H         3.7511053327       -4.8015192683        3.7786875358
 H         6.0430556702       -1.0517524912        3.0947959691
 H         4.6108758392        0.1329958550        3.4679399201
 H         4.9376691064       -0.6096540144        1.8545754297
 H         3.3429342407       -3.0046311881        5.1638252838
 H         5.1186819663       -2.7239479641        5.2212328920
 H         3.8524924218       -1.4160474464        5.1913229769
 H         5.8806174091       -5.4383756214        1.5987322485
 H         5.1780119318       -6.7570867035        2.5595155355
 H         1.4626532906       -6.4158890581       -1.6377607429
 H         1.3574637397       -4.6566935120       -1.2098551201
 H         5.9887588267       -5.2424992280       -1.1063087793
 H         5.9512972620       -6.9632868404       -1.5150621912
 H         6.2357877590       -6.5739073016        0.1239892941
 H         4.3129170777       -8.4932399083       -0.1935638032
 H         2.6873801991       -7.8079385437        0.0684523296
 H         3.2931203949       -8.0026390633       -1.5350546550
 H         2.0235646860       -5.8143966903       -3.9752199049
 H         2.4773428173       -4.2276551966       -3.5358000117
 H        -0.9795582663       -1.4017028005       -4.7389386248
 H         0.5120970536       -1.9090062422       -3.9475503468
 H         1.2417657273       -5.5171583507       -6.2091108996
 H        -0.1901546112       -5.6243967352       -7.0907008307
 H        -0.2186848190       -6.7146428593       -5.8162444255
 H        -2.2490216876       -5.2431156958       -5.8755986664
 H        -2.4032535424       -4.4578979646       -4.3569132489
 H        -2.2201603346       -3.5128354299       -5.8160523578
 H         1.8395130174       -0.6033822675       -5.2587606167
 H         0.9267846553       -0.9851890220       -6.7545982053
 H        -2.1074740171        3.3534778989       -7.4805147861
 H        -2.1164687538        1.7142148555       -6.8992706501
 H        -2.5711070438        3.0779045392       -5.9391833605
 H         2.6558173355        1.7234755505       -5.6141021510
 H         1.9140990736        2.5089360148       -4.2620986241
 H         2.3179692593        3.3746192839       -5.8798592389
 H         1.7856356322        1.0597689122       -7.7152027675
 H         0.2323441385        1.4384924564       -8.1534196516
 H         1.2843205442        2.8130281840       -8.0207487139
 Na       -1.8374507773        1.8423065144        1.7726712719
