155

 C        -0.4156913579        6.1973006063        3.0457754248
 C        -0.6002211601        4.6952616790        2.9976680393
 C        -0.8029950508        3.9199304682        4.3104200991
 C        -2.3791105487        3.6781910167        4.3682274620
 C        -3.2959324566        4.5134035336        5.3357385755
 C        -0.1919517461        2.5533840554        4.3833347925
 C        -0.2537099513        4.6577170479        5.5291061788
 O        -0.6115632603        4.0963115791        1.9224812581
 O        -2.9594427418        2.8977289993        3.6454717720
 C        -4.7526316338        4.8322370409        4.7381129073
 C        -4.5838625134        5.9188195735        3.6733317117
 C        -5.8509253116        6.2965011675        2.7506359079
 C        -6.0228293973        4.9942563645        1.8032250924
 C        -5.4789335319        5.0542276948        0.3012532826
 O        -3.6168179858        6.5803375601        3.5664604341
 O        -6.5986334346        3.9928662555        2.1998175726
 C        -7.0675425780        6.3938598084        3.7272565832
 C        -5.6279074697        7.6441509926        2.0397792968
 C        -5.5572051257        3.7168916182       -0.3109685635
 C        -4.1403804192        2.9827214286       -0.3295380729
 C        -3.4796362747        2.4209008836       -1.7362072861
 C        -2.7352316318        1.1849192991       -1.1181229201
 C        -3.4733213686       -0.1712644422       -1.1911380744
 C        -4.4380327852        2.0531177968       -2.9094106989
 C        -2.3914169734        3.5141168865       -2.2184530228
 O        -3.4955945539        2.9283147686        0.6988735750
 O        -1.6512034093        1.3452298210       -0.5933565750
 C        -2.6135776644       -1.2293338445       -0.5028373411
 C        -2.5220717021       -1.1973984761        1.0526220765
 C        -1.5154792375       -2.0171266307        1.8138658145
 C        -0.1500454854       -1.1242974977        1.6584577344
 C         1.0513083404       -1.9069401408        1.0005785657
 O        -3.1775253660       -0.3229015110        1.6401993959
 O        -0.1224393719        0.0814403261        1.8983374236
 C        -1.8122054630       -2.0013040437        3.3081388252
 C        -1.5106888858       -3.4470854150        1.2507762587
 C         2.4254894181       -1.2665739727        1.4142023498
 C         2.5928364444       -1.5781987189        2.8838425930
 C         4.0396110168       -1.8832639171        3.3352704744
 C         4.3405038009       -3.2245313292        2.4343778983
 C         4.5976822453       -4.5601753213        3.1466630160
 C         4.9545095688       -0.6856108398        3.0247051391
 C         4.1170915965       -2.2109984631        4.8163940909
 O         1.5622371137       -1.5154029744        3.5853611459
 O         4.4961198282       -3.2101265861        1.1984193419
 C         4.7619377674       -5.7111942143        2.0978210944
 C         3.7356730349       -5.7966846467        0.9600308832
 C         4.0915785218       -6.3009021763       -0.5277983618
 C         3.5641692342       -5.3888471770       -1.7083558318
 C         2.0854333387       -5.3876500865       -2.0563896982
 O         2.5985768002       -5.4808184934        1.2480944379
 O         4.3585517813       -4.7362733936       -2.3196466767
 C         5.6314870303       -6.3407863970       -0.7735323149
 C         3.6058613835       -7.7957013120       -0.5390968106
 C         1.7953749319       -4.7078787326       -3.3921569522
 C         0.3301315579       -4.4573237257       -3.7330906477
 C        -0.1020109048       -4.4523659286       -5.2017990140
 C         0.2427708326       -3.0371876853       -5.8728128901
 C         0.1152559000       -1.7834275433       -4.9725919184
 C         0.5579212280       -5.5660781259       -6.1474859838
 C        -1.6749463334       -4.5868706825       -5.2610112454
 O        -0.5011781799       -4.2022233672       -2.8506524460
 O         0.5540960566       -2.9541103069       -7.0627508754
 C         0.8195327475       -0.6031586434       -5.6645326903
 C         0.1130358071        0.7625123590       -5.3628793753
 C         0.5936441873        2.0979864705       -6.0439206695
 C        -0.5517425826        3.0764836645       -6.0108632272
 C        -1.8664291446        2.6414787175       -6.5177417182
 O        -0.7294264688        0.9152785514       -4.4682385741
 O        -0.3445232770        4.2459849824       -5.6641888462
 C         1.7474755029        2.7144405907       -5.1912135987
 C         1.0543353481        1.8375436231       -7.4752361946
 H        -0.5909740874        6.6278397347        2.0958112107
 H        -1.1349574573        6.5952612259        3.6872685937
 H         0.5402084362        6.4571142348        3.5026404989
 H        -3.4702023916        3.9150298636        6.2201990996
 H        -2.8065857797        5.3849117916        5.7057184164
 H         0.8619629725        2.5247900468        4.2640524627
 H        -0.5166688530        1.9241393157        3.5366143023
 H        -0.4017009654        2.1137425411        5.3428112778
 H        -0.5870808430        5.6764408887        5.5687538174
 H        -0.5824052320        4.3110091878        6.5383096367
 H         0.8519604093        4.6374524161        5.5085607685
 H        -5.1174066498        3.8727262589        4.2647437412
 H        -5.3546679805        5.0784509023        5.6156097305
 H        -6.0813171761        5.8106978028       -0.2320191068
 H        -4.4325204182        5.5024947926        0.3256193805
 H        -7.0996315542        5.4331671134        4.2425610853
 H        -8.0463797035        6.5037616575        3.2713612416
 H        -6.8299496267        7.1996007785        4.4794979188
 H        -6.1123152284        8.5104892385        2.6387808846
 H        -4.5872661452        7.8830510174        1.8701295559
 H        -6.1851754886        7.6019042824        1.1156207555
 H        -5.9985289279        3.7406021034       -1.3047496151
 H        -6.2767234342        3.0876236177        0.2632432485
 H        -4.4644700848       -0.2053810282       -0.8550009536
 H        -3.5537941901       -0.5285182592       -2.2245864918
 H        -5.2886651356        1.5215215748       -2.5165982508
 H        -3.8775623110        1.4597729124       -3.6104760937
 H        -4.8578175673        2.9472453097       -3.3099592565
 H        -2.9088601448        4.3462949281       -2.5727461623
 H        -1.8214927962        3.8254979620       -1.4251683775
 H        -1.8876430033        2.9424986390       -3.0260407628
 H        -3.0373195510       -2.1981800896       -0.8847932212
 H        -1.5728418529       -1.1704132788       -0.8961684923
 H         0.9417081785       -2.9269210739        1.4034836766
 H         0.9467307999       -1.8343165740       -0.0514078863
 H        -2.7510771156       -2.4483583749        3.4283524809
 H        -1.5844250710       -1.0224361031        3.6615792671
 H        -1.1779886964       -2.6158151621        3.8196840820
 H        -0.9037389746       -4.2105347349        1.6600060694
 H        -2.4985653760       -3.9772851383        1.3467098477
 H        -1.1760671084       -3.5153752136        0.1845136364
 H         2.4979461004       -0.1559378535        1.3152733643
 H         3.1844459503       -1.7342946247        0.7561404240
 H         5.4835502087       -4.5863142094        3.8661196432
 H         3.7674304780       -4.7143173919        3.8178940583
 H         5.9404545291       -0.8485929239        3.5927197710
 H         4.4586674270        0.0870742536        3.4893515842
 H         5.1375180774       -0.3891343765        1.9866798640
 H         3.4365809167       -2.9701686422        5.1851660157
 H         5.0589759187       -2.5950222235        5.1198416607
 H         3.9488621090       -1.2563161765        5.3696186850
 H         5.7782947052       -5.6439820367        1.6501406328
 H         4.7193347051       -6.7036178900        2.5793640408
 H         1.6879907513       -6.3686061068       -2.1344751668
 H         1.5602774619       -4.8760335621       -1.2069041416
 H         6.0017037813       -5.3845801562       -0.4497389493
 H         5.8067234069       -6.4976249737       -1.8436969997
 H         6.0207736466       -7.1849191304       -0.1626792279
 H         3.7856128266       -8.1103006708        0.4722299866
 H         2.5426214251       -7.8730409966       -0.7660727870
 H         4.1202699071       -8.4727218177       -1.2289125970
 H         2.2484257291       -5.3028239114       -4.1643932981
 H         2.3620421086       -3.7782798039       -3.4523605259
 H        -0.7981010306       -1.3431381188       -4.6319356119
 H         0.6967877944       -1.9918291348       -4.0595627899
 H         1.4237831634       -6.0856713953       -5.7058940670
 H         0.9090109868       -5.3455933307       -7.1965798770
 H        -0.2214079242       -6.2172151422       -6.3181008093
 H        -2.0934785636       -5.4967872200       -5.5579389020
 H        -2.0714222529       -4.2744991684       -4.2954635833
 H        -2.1267452508       -3.8406296879       -5.9835151448
 H         1.8660896191       -0.5041270318       -5.3280327765
 H         0.8217862162       -0.7935985144       -6.8089722508
 H        -2.0007767047        2.9408886095       -7.5904714839
 H        -1.9250946066        1.5547413013       -6.5655802760
 H        -2.7377330062        3.1120023012       -6.0106438643
 H         2.8006236449        2.3044715652       -5.3763759372
 H         1.4544640099        2.5111147246       -4.1903148562
 H         1.6890533776        3.8490799574       -5.3294511853
 H         1.9154979708        1.1234881299       -7.4851867561
 H         0.3341974752        1.2871541530       -8.0139620483
 H         1.3012810730        2.6533712914       -8.0961345700
 Na       -1.9703091203        1.6160451545        1.8422872459
