155

 C        -0.2086040667        6.1528621166        3.0001575684
 C        -0.5830275446        4.6988946401        3.1284054992
 C        -0.9698224665        3.9861021777        4.4582621932
 C        -2.4618938576        3.6773081859        4.5539072532
 C        -3.3638438405        4.5326901269        5.4246016031
 C        -0.1200327952        2.6258860248        4.4613431117
 C        -0.3956868607        4.7644428915        5.6829419405
 O        -0.6066841916        4.0603948814        2.1073454931
 O        -2.9352949891        2.8322880545        3.8088942952
 C        -4.6704731798        4.8337296629        4.7006375939
 C        -4.5764344953        5.9324238854        3.6899841024
 C        -5.7806616531        6.1322164476        2.7281774366
 C        -6.0202540258        4.9058009101        1.7289770964
 C        -5.6171804980        5.0150167147        0.1490249544
 O        -3.4684709566        6.4898692258        3.4801141407
 O        -6.6012515775        3.9606965529        2.1426401467
 C        -7.1991905117        6.2946099952        3.3906746432
 C        -5.4524444039        7.4649025227        1.8414304415
 C        -5.6546969135        3.5763008995       -0.5492547055
 C        -4.2369729658        2.9309552224       -0.3855216743
 C        -3.4102970436        2.4221704997       -1.6727062657
 C        -2.7154262449        1.1191461173       -1.1466126226
 C        -3.4528069517       -0.1914996015       -1.3483145007
 C        -4.3561476506        2.3325195448       -2.9185949794
 C        -2.2846387050        3.5037616172       -2.0221648787
 O        -3.6487462940        2.9146254518        0.6719197461
 O        -1.6309523714        1.1809477434       -0.5241557339
 C        -2.7453727604       -1.3851494973       -0.6266325472
 C        -2.6602597320       -1.2057142161        0.8754777366
 C        -1.6579870644       -2.1089407337        1.6695602973
 C        -0.2633576618       -1.3124232563        1.4884160965
 C         1.0316300079       -2.0122399464        0.9163225302
 O        -3.2862822402       -0.3185848590        1.3887553565
 O        -0.1987265484       -0.1313361070        1.7420492567
 C        -2.0021535173       -2.0480982854        3.2311011590
 C        -1.5515737357       -3.5417195122        1.1910785857
 C         2.1298944006       -1.1368655589        1.4591467196
 C         2.4458720283       -1.3933288891        2.9222796877
 C         4.0304805710       -1.8368704202        3.3485715927
 C         4.3052215843       -3.0839794669        2.4715298124
 C         4.1986135625       -4.5575234469        2.9846601793
 C         5.0453392426       -0.7388713109        2.9712257564
 C         3.9394569889       -2.1664945098        4.8291251435
 O         1.7423690686       -1.3395289787        3.8842929777
 O         4.7594277178       -2.8670327067        1.3662728690
 C         4.6281982731       -5.6469654432        2.0227747581
 C         3.6854834105       -5.8033046861        0.8458521797
 C         4.1901719002       -6.2869174585       -0.5083097951
 C         3.6485266100       -5.4274967580       -1.6500021667
 C         2.1993331753       -5.4307227449       -2.0980654074
 O         2.4964368087       -5.6091420990        1.0031988433
 O         4.4861240971       -4.7280410862       -2.2817368983
 C         5.6998392417       -6.5185861129       -0.5428928771
 C         3.4871077731       -7.6325962822       -0.5858910285
 C         1.9490757195       -4.5069607280       -3.3625626017
 C         0.5480349740       -4.3919121512       -3.7201882193
 C         0.0528450011       -4.3904929468       -5.1816324767
 C         0.4425808354       -2.9997656392       -5.9046193719
 C         0.2638405548       -1.8124034234       -4.9783755320
 C         0.7508689794       -5.5573783639       -6.0518632818
 C        -1.4752176494       -4.6613510461       -5.3404250700
 O        -0.2335476818       -4.2164783582       -2.8200136527
 O         0.8161573723       -2.8771274326       -7.0217278060
 C         0.7251557996       -0.4989887010       -5.6414182653
 C         0.0894345640        0.8074927599       -5.1587814691
 C         0.5627927951        2.1506447987       -5.8728020915
 C        -0.7183555325        3.1104932569       -5.8893938884
 C        -1.9800677306        2.6624961026       -6.5841790327
 O        -0.8341240764        0.7496225017       -4.4113916203
 O        -0.7610002521        4.1997414370       -5.3970726004
 C         1.7561312345        2.7454628844       -5.0481062567
 C         1.1125454110        1.8816526855       -7.3366330872
 H        -0.5294265754        6.4510257690        1.9459778180
 H        -0.6055546530        6.8715460762        3.7750636276
 H         0.9249461150        6.1517888620        3.1028843385
 H        -3.5768076156        4.1177203007        6.4518118445
 H        -2.9180984850        5.5711793740        5.6086784685
 H         0.8726957578        2.6532821053        3.9621644059
 H        -0.6471671271        1.9066061642        3.9171666376
 H         0.0662645771        2.2806057996        5.4573387736
 H        -1.0437115099        5.5433843411        6.0747089695
 H        -0.3511024161        4.1159210624        6.5023782584
 H         0.5684545760        5.2102154565        5.5459244697
 H        -5.1652130924        3.9930864268        4.2021688412
 H        -5.2867561641        5.1009339913        5.5957706939
 H        -6.3825413982        5.7444157902       -0.1627926391
 H        -4.6802656454        5.4980517011        0.0121107385
 H        -7.4620593162        5.5124205048        4.1400977738
 H        -7.9398419017        6.3235798618        2.5851365616
 H        -7.2474000407        7.2758649769        3.8081016255
 H        -4.9109118801        8.1238324737        2.4763639974
 H        -4.7205525071        7.0737706249        1.1969226173
 H        -6.1768270155        8.1210387289        1.3872936986
 H        -5.9154497023        3.5848081614       -1.6215332216
 H        -6.3928204226        2.8897922671       -0.1286237058
 H        -4.5403899764       -0.1428990845       -1.0336656140
 H        -3.4812085671       -0.4620455265       -2.4114456623
 H        -5.1975697570        1.5915576537       -2.8148980881
 H        -3.7023152400        2.0898292204       -3.7948961030
 H        -4.8599259971        3.3401389284       -2.9964952600
 H        -2.8990593336        4.4430861274       -2.0666058992
 H        -1.6231406016        3.6347027330       -1.0533359401
 H        -1.7981011410        3.2020471033       -2.8935906340
 H        -3.1861590781       -2.3475774096       -0.8970667553
 H        -1.7294910838       -1.5088761468       -1.0266368877
 H         1.0253667731       -3.0428374879        1.2543796076
 H         1.0761175146       -1.9059062166       -0.2052302197
 H        -2.8439435340       -2.7075103890        3.4615258594
 H        -1.9034934353       -1.0006112896        3.4230493639
 H        -1.1512345659       -2.5857016071        3.7942364017
 H        -1.0040180418       -4.3194707190        1.7836659268
 H        -2.4775282220       -4.0104345381        0.9934863819
 H        -1.0253902031       -3.5969850240        0.2731195806
 H         1.8518502071       -0.1094479364        1.4553902241
 H         2.9914213562       -1.2908268677        0.8471247514
 H         5.0400913702       -4.4809837010        3.7066577754
 H         3.3099653982       -4.8515231501        3.6053516755
 H         5.9726332613       -1.0554666694        3.3002386612
 H         4.8739798275        0.2661632663        3.4583830654
 H         5.0256913458       -0.6486046361        1.8887607613
 H         3.4285723061       -3.0938295413        4.9666408627
 H         4.9234574630       -2.4407164330        5.2810699362
 H         3.5693314818       -1.3342801184        5.4154721813
 H         5.6589487736       -5.4928648027        1.7059482611
 H         4.5706518241       -6.6140565065        2.4626018695
 H         1.8874025931       -6.4697968431       -2.4098258818
 H         1.5273121025       -5.1577751070       -1.3219034098
 H         6.1426776857       -5.7178432835        0.0163467234
 H         6.0684783358       -6.5974642176       -1.5693150711
 H         5.8451240406       -7.4551176100       -0.0135405325
 H         3.8137756267       -8.2400519980        0.3005569637
 H         2.3935344963       -7.4852309478       -0.6194732728
 H         3.7599502361       -8.1171115802       -1.5198654522
 H         2.5887845309       -4.7416422009       -4.2495502031
 H         2.2206097344       -3.4652491135       -3.0993717808
 H        -0.8320620689       -1.6644100874       -4.9114046667
 H         0.6463307631       -1.8403559615       -3.9646153593
 H         1.3901220008       -6.2217208404       -5.4817626154
 H         1.4014296154       -5.0897441576       -6.7028681549
 H         0.0934948296       -6.1718947277       -6.7162180344
 H        -1.7232850761       -5.5410289334       -4.6314436577
 H        -2.1135465266       -3.7879969427       -5.0600249677
 H        -1.8114608053       -5.0312681758       -6.2834477365
 H         1.8293813093       -0.4988192806       -5.6722546646
 H         0.4725043077       -0.5368572695       -6.6694971995
 H        -1.9067982942        2.7754467788       -7.6741584587
 H        -2.2287203225        1.5865893740       -6.5103877131
 H        -2.7813587193        3.3029658342       -6.2787396909
 H         2.4620371198        1.9797569241       -5.1152742477
 H         1.4888040049        2.9686110874       -4.0021096972
 H         2.1535705445        3.6449651440       -5.4662551092
 H         2.0475449727        1.3788138762       -7.3652873397
 H         0.4561112207        1.4212010729       -8.1409342001
 H         1.4507407992        2.8612855612       -7.7792529392
 Na       -1.7891687585        1.8073971563        1.8385642131
