155

 C        -0.4296233390        5.3547739674        2.6296250567
 C        -0.8734553620        3.9152276367        2.8956187758
 C        -1.3735404644        3.3845012454        4.3892942426
 C        -2.9406285751        2.9888271718        4.2987555582
 C        -4.0595650802        3.7777170223        5.0387685686
 C        -0.6376898993        2.1041379695        4.6725197121
 C        -1.0522586791        4.4364740163        5.5097489253
 O        -0.8925811941        3.0773413774        1.9909074416
 O        -3.1569328543        1.9478233367        3.7061456994
 C        -5.1360675359        4.0742578696        4.0416973886
 C        -4.5796945756        5.1418848184        3.0206931548
 C        -5.5197914306        6.0442128780        2.2366860100
 C        -6.2451393997        5.0086537487        1.2880437982
 C        -5.9433296864        4.8394815121       -0.2098226534
 O        -3.3945729869        5.0496943242        2.7697618981
 O        -7.0212023733        4.1479463149        1.7672696868
 C        -6.6943824135        6.6567073712        3.0184174407
 C        -4.7172853450        7.0631391991        1.5675611470
 C        -5.8642343420        3.3406858854       -0.6824172059
 C        -4.5151168995        2.7422499811       -0.3588647997
 C        -3.3980228576        2.6755482439       -1.5792585551
 C        -2.5367769274        1.3807253561       -1.3118340230
 C        -2.9998239147        0.0074561680       -1.8629035972
 C        -3.8807894838        2.4534044872       -3.0295981770
 C        -2.5093373145        3.9060474476       -1.4114765186
 O        -4.2884081004        2.3146301617        0.7681808168
 O        -1.6241035529        1.5253583133       -0.5114211124
 C        -2.2700808502       -1.2438400285       -1.2397292247
 C        -2.7918888789       -1.3545254937        0.2259056238
 C        -1.8718082180       -2.1447896317        1.3564302674
 C        -0.5498075824       -1.3932685110        1.5801693791
 C         0.7230691744       -2.0209287234        0.9219338861
 O        -3.9548616791       -1.1363376550        0.4757559941
 O        -0.5119175525       -0.3165903272        2.1279720665
 C        -2.7756801138       -2.1829322447        2.7003680799
 C        -1.8754693639       -3.7052740232        0.8780258775
 C         1.9323778945       -1.2249562602        1.5093191475
 C         2.1819265978       -1.6520943576        2.9759059765
 C         3.6022568878       -1.3908959154        3.7291588026
 C         4.5457390516       -2.4766064448        3.0502084326
 C         4.2966427757       -3.9880508054        3.1987275809
 C         4.0966977591        0.0574162023        3.3863249684
 C         3.4635203338       -1.6538170511        5.2535574552
 O         1.3233769599       -2.2256371150        3.5698863578
 O         5.5279716018       -2.0185614901        2.5631017610
 C         4.7743813579       -4.5797398151        1.8721772976
 C         3.7013839854       -5.4198447394        1.0205196408
 C         4.0719627729       -6.5660681739       -0.0116441878
 C         4.1085794299       -5.9777797628       -1.5133822733
 C         2.7659517067       -5.5166657409       -2.1118920331
 O         2.5271230580       -5.1342280684        1.2196423414
 O         5.2180694520       -5.9945156426       -2.0560233096
 C         5.4267366796       -7.1958558262        0.3407574670
 C         3.0039826793       -7.7556592545       -0.0054634987
 C         3.0763316125       -4.2157512687       -2.8195121585
 C         1.7526031015       -3.7025713439       -3.4565528422
 C         1.5179186088       -3.8966526093       -5.0838201315
 C         1.4913980022       -2.3453205416       -5.5714230278
 C         0.1471551849       -1.4574737047       -5.5793848744
 C         2.7037170677       -4.5430374751       -5.8925723170
 C         0.1910750642       -4.6001002047       -5.3301270159
 O         0.8729743311       -3.1441305192       -2.8042958917
 O         2.5332892523       -1.8063431279       -5.7102018278
 C         0.6646898064        0.0565311762       -5.5543593972
 C        -0.4641352779        1.0427441963       -5.4739536188
 C         0.0419137551        2.5746107952       -5.3466354232
 C        -0.8913265882        3.7237463132       -5.8756637822
 C        -1.9032499721        3.3997751632       -6.9961133790
 O        -1.6713913709        0.8172606643       -5.3824303959
 O        -0.9206083256        4.8337049115       -5.4895142550
 C         0.4158594463        2.7755449132       -3.8977638438
 C         1.3864157455        2.7502138524       -6.2057940312
 H         0.2467218825        5.3654727997        1.8209834505
 H        -1.2943608518        5.9911581033        2.3436490620
 H         0.0589830866        5.6954181630        3.4974642526
 H        -4.5459594517        3.0916837725        5.7470086036
 H        -3.6074936371        4.5477996127        5.5997594399
 H         0.3700419624        2.0729278940        4.4676991858
 H        -1.0445199612        1.3804144767        3.9875094737
 H        -0.6969302326        1.9109822885        5.7220686209
 H        -1.3117726305        5.4007845846        5.1436722780
 H        -1.5514476783        4.1717191454        6.4464324362
 H         0.0354568621        4.3979535233        5.6474963672
 H        -5.6233769744        3.1721147321        3.4835032578
 H        -5.9509274442        4.4871422421        4.6105230903
 H        -6.8261542064        5.2476678320       -0.6727759700
 H        -5.1723073373        5.4354828567       -0.6480974257
 H        -7.2143473739        5.8734521339        3.5513271034
 H        -7.3917470424        7.1231221144        2.3338956375
 H        -6.3885349517        7.5384421503        3.6711200267
 H        -4.6502600418        7.9473128259        2.1693606150
 H        -3.6948028000        6.5701266727        1.3017215219
 H        -5.2273000992        7.4380740922        0.7033215101
 H        -6.0259774938        3.4377632528       -1.7455851037
 H        -6.5819765672        2.7037623266       -0.2109812552
 H        -4.0647734799       -0.1337896844       -1.6874753916
 H        -2.9388427519       -0.0161816434       -2.9838147823
 H        -4.7035085246        1.7067839682       -3.1358024974
 H        -3.1554571613        1.9917340019       -3.7498071619
 H        -4.1409663993        3.3655369972       -3.5982179824
 H        -3.0726786521        4.8343381207       -1.2525378662
 H        -2.0456918413        3.8009640792       -0.4312858162
 H        -1.8620840284        3.8121518708       -2.2724531493
 H        -2.7453796937       -2.0813033931       -1.7922035880
 H        -1.1812105094       -1.0912633999       -1.3584753922
 H         0.7592769424       -3.0738544817        1.1226776008
 H         0.4524335759       -1.8523941780       -0.1509236348
 H        -3.6879699836       -2.6414289237        2.2886866663
 H        -2.6575013141       -1.1627249170        3.1367752200
 H        -2.3530562475       -2.9904450893        3.3657005976
 H        -1.4532562798       -4.2773642313        1.6301154879
 H        -2.9457868309       -3.9257453546        0.6683075696
 H        -1.2992750419       -3.7403448976       -0.0484164578
 H         1.8263851683       -0.0962103244        1.3227500289
 H         2.8712190057       -1.5105007421        0.9590643533
 H         4.7641886368       -4.5253047945        4.0040762517
 H         3.2687515598       -4.3076722616        3.1881251453
 H         5.0467269810        0.1427758651        3.8807344674
 H         3.4080532701        0.7933488941        4.0136051090
 H         4.0902119710        0.3618487908        2.3628138138
 H         3.7469427248       -2.7043990221        5.3916374557
 H         4.2529641798       -1.1597398013        5.8086622997
 H         2.4803904595       -1.3626821582        5.6636997748
 H         5.1374891745       -3.6451137620        1.2609540375
 H         5.6556710235       -5.2048234936        1.9351483653
 H         2.3629418668       -6.2575871872       -2.8581923404
 H         2.1187270989       -5.3198273524       -1.2465982857
 H         6.2920475713       -6.5036499444        0.3666541872
 H         5.6883033392       -7.9537264842       -0.3650719770
 H         5.4622304462       -7.6711074626        1.3054339183
 H         2.1027224860       -7.4869538011        0.5906212655
 H         2.7805116409       -8.0487399328       -1.0562899801
 H         3.4888066455       -8.6383147231        0.4509758064
 H         3.8847535387       -4.2684789682       -3.5589273529
 H         3.3768170167       -3.5121426493       -2.0401584021
 H        -0.4471828167       -1.7255569076       -6.4503313494
 H        -0.4922499112       -1.6457178490       -4.7075857972
 H         3.3058980481       -5.2702801562       -5.3175954180
 H         3.4236377877       -3.7725443757       -6.2479729876
 H         2.1390757633       -5.0177282478       -6.7131985557
 H        -0.4171579643       -4.1636604052       -6.1059335525
 H         0.3539001342       -5.6946872776       -5.5880897422
 H        -0.4375890305       -4.5439105062       -4.3749693688
 H         1.2646292485        0.1002759771       -4.6065085318
 H         1.1895034284        0.2153330021       -6.4742420541
 H        -2.5561663744        4.2621557124       -7.1766500298
 H        -1.3319397582        3.0821217483       -7.8604041600
 H        -2.6337829181        2.6014359018       -6.7483821752
 H         1.1567955849        2.1126637716       -3.5449080890
 H        -0.5246202781        2.6832057667       -3.2650147567
 H         0.6506266858        3.7392748455       -3.7253232144
 H         2.1671446969        2.0668849481       -5.7103106037
 H         1.1954309216        2.5255033393       -7.2437069342
 H         1.8832015943        3.6924500632       -6.0537659529
 Na       -2.2513513195        1.2680120506        1.7030179984
