155

 C        -0.4506375302        4.9118840268        3.0966053950
 C        -1.3300313501        3.7086844832        2.9620753314
 C        -1.6687879653        2.8419477503        4.2408011804
 C        -3.2179939378        2.7391968021        4.0687624298
 C        -4.1309680905        3.7018956776        4.9848884476
 C        -0.8870353402        1.5451779851        4.2128351077
 C        -1.3174661787        3.6945393204        5.5427476392
 O        -1.6229833170        3.3627261974        1.8477048892
 O        -3.7314277192        1.9301576165        3.3206186515
 C        -5.3438789485        4.1271856559        4.1110438848
 C        -4.8069183999        5.3018202607        3.1817825780
 C        -5.8109165811        6.0226099017        2.0970161390
 C        -6.3950621259        4.8727200602        1.3516490666
 C        -6.0530886030        4.7364298479       -0.1942514318
 O        -3.6375763561        5.6571542980        3.1694542488
 O        -7.0738996110        4.0381776278        1.8141679253
 C        -6.9698809399        6.7639681062        2.9650483871
 C        -4.9847417514        7.0251922915        1.2826231661
 C        -6.1215707021        3.2434825614       -0.6699105092
 C        -4.8090122207        2.4663597600       -0.4473758783
 C        -3.5644511378        2.4698508898       -1.6210580478
 C        -2.6190423477        1.2067023776       -1.5826896085
 C        -2.9327844749       -0.1352307013       -2.4193830455
 C        -4.2431887654        2.5897301748       -3.0859726060
 C        -2.8180309187        3.6852300122       -1.2244807294
 O        -4.6539980371        1.8542166677        0.5753392592
 O        -1.6343897786        1.2385591499       -0.8938548691
 C        -2.4198657785       -1.4996628536       -1.6654153327
 C        -2.6944870588       -1.4415051073       -0.2318333747
 C        -1.8613283528       -2.4851164745        0.6439394325
 C        -0.5340147211       -1.7068916584        0.9732453210
 C         0.8970380381       -2.5110347917        1.0810366289
 O        -3.5342068470       -0.6571440740        0.2574381588
 O        -0.5143671269       -0.4841094465        1.0409377581
 C        -2.6113713681       -2.7869706562        2.0105110440
 C        -1.7872494779       -3.8964919213       -0.1627327868
 C         2.1029905264       -1.7702004004        1.6320815873
 C         2.1164934757       -2.0464467053        3.0908904818
 C         3.4795644824       -1.7159348116        3.8350908737
 C         4.5920107557       -2.3822596216        3.0163643884
 C         5.1892447252       -3.7864389965        3.3573497663
 C         3.4884995822       -0.1342431362        3.7477386157
 C         3.3639948890       -2.2150035550        5.3102316684
 O         1.3064582945       -2.7703281627        3.6597811454
 O         4.9393554063       -1.8460448966        1.9441940068
 C         5.3857836598       -4.6329338082        2.1307010168
 C         4.0654517517       -5.2060505264        1.6337940916
 C         4.0155639378       -6.4698428685        0.6155148952
 C         4.0458084072       -5.7138050135       -0.8423835535
 C         2.8361417747       -4.8484806462       -1.3336884430
 O         3.0037896606       -4.6968757726        1.9107757592
 O         4.9773148547       -5.8465395723       -1.5453209932
 C         5.2421613648       -7.2875922788        0.7878123425
 C         2.7428394734       -7.3141663275        0.6649040845
 C         3.2562476776       -4.1381961660       -2.6334739238
 C         1.9628792400       -3.4532773711       -3.2186800248
 C         1.8731286213       -3.4407846890       -4.7299285128
 C         2.0713868042       -1.9418512242       -5.3080625148
 C         1.2516598895       -0.7627684688       -4.7039865695
 C         2.8408767905       -4.3877238512       -5.5021617490
 C         0.4337366115       -3.6133141913       -5.2054396754
 O         1.1439697350       -2.8995190947       -2.4514592939
 O         2.9760492472       -1.7322343359       -6.0786057292
 C         1.3389717704        0.4306931868       -5.5956539282
 C         0.2442520099        1.5627327980       -5.3412232714
 C         0.3353572692        3.1436611608       -5.4361079922
 C        -1.0031198281        3.6757315644       -6.1005670614
 C        -1.4473615981        3.0919173687       -7.3658604487
 O        -0.8884628783        1.0615519031       -5.1680801272
 O        -1.7570420428        4.3973506648       -5.3928098457
 C         0.6275486272        3.5029592324       -3.9776537141
 C         1.5787952456        3.6336325855       -6.3183814399
 H        -0.0404791869        5.1728734167        2.0737542838
 H        -1.0664413222        5.7406375879        3.4375480301
 H         0.4184325473        4.7072732228        3.8643179399
 H        -4.5233050631        2.9902491728        5.7272502661
 H        -3.5620019933        4.5109816087        5.5577955397
 H         0.1271482343        1.8431927525        3.9141159544
 H        -1.3471783072        0.8847334068        3.4894249620
 H        -0.9434234368        0.9182068623        5.1694747267
 H        -1.6381954048        4.7811304486        5.5996978834
 H        -1.6206405678        3.1775153536        6.4925312897
 H        -0.2464961632        3.7026064039        5.4778252739
 H        -5.5562153598        3.1638487100        3.5496350312
 H        -6.0405190728        4.5144511893        4.7672320976
 H        -6.7677846302        5.3136112718       -0.8148438294
 H        -5.0419731470        5.0855150753       -0.5018256834
 H        -7.3483056368        6.2179433290        3.8085109158
 H        -7.8213958546        6.9438898486        2.2408850540
 H        -6.6006995605        7.6702313116        3.4329123387
 H        -4.8827929006        7.8407110680        1.9138289429
 H        -4.0339508015        6.7029565899        1.0693706638
 H        -5.5046526882        7.1369067469        0.3055778195
 H        -6.4027096014        3.3159079495       -1.7446170607
 H        -6.9733966746        2.6252281214       -0.2800867424
 H        -3.9296564337       -0.2878439729       -2.7436723797
 H        -2.4198252164        0.0308020187       -3.4119231722
 H        -4.9859365563        1.8459319247       -3.3129926919
 H        -3.5259527893        2.5105544728       -3.8538623537
 H        -4.8170346243        3.4159300525       -3.3334183139
 H        -3.4603204928        4.5813513192       -1.1421028918
 H        -2.1333619095        3.3298434708       -0.3816397761
 H        -2.1454225361        3.9467163290       -2.0093541360
 H        -2.8876705436       -2.3386924897       -2.1690122496
 H        -1.3582656555       -1.5646284598       -1.8153624025
 H         0.9180615559       -3.4273388962        1.6547326080
 H         0.8920429016       -2.6551409847       -0.0079700085
 H        -3.6108095246       -3.1172172392        1.7229106585
 H        -2.8469177539       -1.8328203032        2.4536367632
 H        -1.9699228561       -3.5005094182        2.5790000046
 H        -1.2793981448       -4.6140985389        0.5953492113
 H        -2.8202978957       -4.2113883778       -0.2749233782
 H        -1.2625657966       -3.9396944125       -1.1138554125
 H         2.0990660532       -0.8023554193        1.2588571307
 H         3.0034758132       -2.2438992466        1.2975945246
 H         6.1565621284       -3.6670458028        3.8297402357
 H         4.7237602885       -4.4592951324        3.9751374773
 H         4.3685642879        0.2213678457        4.2014506157
 H         2.6645983777        0.2170919758        4.3345224433
 H         3.6340427460        0.2573079408        2.7612855553
 H         3.2550263756       -3.3081692989        5.3040647317
 H         4.1962143422       -1.8342220788        5.8898945272
 H         2.4539716816       -1.9517841226        5.6705159452
 H         5.8639614789       -3.9708862877        1.3482893889
 H         6.0193727211       -5.4741140851        2.3571182679
 H         2.1465839273       -5.6383201349       -1.4546530196
 H         2.4357768441       -4.2051207631       -0.5405266949
 H         6.1310289924       -6.9568549857        0.1666690450
 H         5.1540228548       -8.3379337458        0.5465980798
 H         5.6786825948       -7.3270891458        1.7944264403
 H         2.8944122987       -8.3383600054        0.7579856374
 H         2.1250388089       -7.0251280714        1.5153370641
 H         2.0767583047       -7.1658065957       -0.1820797675
 H         3.7706562493       -4.8277402797       -3.2699352576
 H         3.9479125604       -3.2934390488       -2.3639680755
 H         0.1863942924       -0.9666217252       -4.7690179445
 H         1.6286505539       -0.5327256068       -3.7087482995
 H         2.2898025489       -5.2654796837       -5.6212567455
 H         3.8053841709       -4.4241194362       -5.1864580629
 H         2.9692918445       -4.0468801461       -6.5698866047
 H         0.1936014432       -3.2069265565       -6.1960703159
 H         0.2712420383       -4.6511934746       -5.1833708756
 H        -0.1836616866       -3.2534619326       -4.4600234541
 H         2.3436067608        0.8204789407       -5.7137311165
 H         1.1252723207        0.0691915035       -6.5855718981
 H        -2.1461142695        3.7790287670       -7.8344927876
 H        -0.6975863207        2.8456849623       -8.1267307411
 H        -1.9822434198        2.1767122658       -7.0224147572
 H         1.6098127200        3.1224927084       -3.6609101008
 H        -0.0629913778        3.2097290136       -3.2559438574
 H         0.8138237327        4.6428259656       -3.9356557616
 H         2.3837939473        2.9554679829       -6.0737513170
 H         1.3788134616        3.4641585764       -7.3354077462
 H         1.7315203868        4.6959300690       -6.2014184400
 Na       -2.4890196296        1.1270643309        1.5354584331
