155

 C        -2.1162550491        4.8711478524        3.5405614969
 C        -1.7817015211        3.3846325551        3.4043079436
 C        -2.4641201169        2.3870317548        4.4707989937
 C        -3.6286150004        1.5737717092        3.7260046112
 C        -4.9654496626        1.2861525550        4.5229344045
 C        -1.3922658304        1.2008235727        4.7051223755
 C        -2.9041067168        2.9881566151        5.7410560350
 O        -1.1170311752        2.9311765167        2.4829926041
 O        -3.5369715914        1.1350438620        2.5986458142
 C        -6.2190757382        1.5229309419        3.6213680253
 C        -6.2929827857        3.0574199649        3.1834729998
 C        -7.2846954092        3.6197738698        2.1315239306
 C        -6.6015266378        3.7603084419        0.6257989970
 C        -5.6316818766        4.9282483520        0.4687974583
 O        -5.3940754127        3.8023134786        3.5312651323
 O        -7.0053337235        3.0866395965       -0.2934812577
 C        -8.6153842653        2.7848610712        2.0348188531
 C        -7.6994520815        5.0901552649        2.4778251723
 C        -4.7773015296        4.8724516189       -0.8071171981
 C        -3.9383846741        3.6139783417       -0.7770245028
 C        -3.6403926169        3.0049803627       -2.2355874639
 C        -2.5787668643        1.7418245715       -2.1488414673
 C        -2.9002861356        0.4304670887       -2.9767129433
 C        -4.9901482282        2.4493579870       -2.7753164549
 C        -2.9534150665        3.9924734167       -3.1104281716
 O        -3.4188197337        3.2318952885        0.2084547218
 O        -1.4933147448        2.0303996031       -1.7526259565
 C        -2.5009600314       -0.9333494320       -2.3824195765
 C        -2.9803688375       -1.0144768187       -0.8791954673
 C        -2.4284003523       -2.1825368932       -0.0920567701
 C        -1.1121136585       -1.6553544834        0.5022020247
 C         0.0804795481       -2.7192756032        0.4645243479
 O        -3.4288390913       -0.0263775407       -0.3145260284
 O        -0.9788158568       -0.5420024344        0.9629758640
 C        -3.3555256910       -2.3485225583        1.0705414791
 C        -2.3994872212       -3.5738483994       -0.8319661799
 C         1.2010260398       -2.1243716637        1.2493974926
 C         0.8315455272       -1.9883262329        2.7784021528
 C         2.1301895555       -1.6202887684        3.7303527639
 C         3.2243836271       -2.7244601198        3.4839013031
 C         2.8884255799       -4.2157151410        3.9185048192
 C         2.7469999052       -0.1609296416        3.3735933046
 C         1.6458141462       -1.6156958223        5.1501086066
 O        -0.2810735668       -2.1839036864        3.2145487495
 O         4.3057888802       -2.4467355411        2.9724073320
 C         3.9927726120       -5.1543248743        3.4619515829
 C         3.8564208574       -5.4448076431        1.9346997983
 C         5.0483623479       -5.8515676618        0.9680386306
 C         4.9799975239       -5.1191880409       -0.3838561097
 C         4.4701872408       -3.6550530397       -0.3078517998
 O         2.7758298534       -5.4796029179        1.4007287724
 O         5.3553729749       -5.6525879540       -1.4284809834
 C         6.4869568274       -5.7345438165        1.5910751627
 C         4.8111974462       -7.3487454505        0.6647058824
 C         4.8326370536       -2.9566036275       -1.5740204892
 C         3.6717206925       -2.0957328243       -2.0451534012
 C         3.7532216842       -1.3259441446       -3.3759283784
 C         3.4264187142        0.2591817932       -3.2301635032
 C         2.0639161998        0.7671251390       -2.8982480851
 C         5.2336721990       -1.3513633733       -3.9380243484
 C         2.8949065367       -1.9478296107       -4.4994061953
 O         2.6159304971       -2.0741302477       -1.3891124168
 O         4.3892141058        1.0451062695       -3.3416654295
 C         1.7707945906        1.9240926824       -3.8594686325
 C         1.1722334819        1.4474803444       -5.1691315790
 C         1.0365411004        2.4633459186       -6.3405148935
 C        -0.4612153961        2.5664741957       -6.8492743332
 C        -1.0765474885        1.4666181259       -7.6821247336
 O         0.9312407085        0.2588462704       -5.3029617997
 O        -0.9870593566        3.5786704209       -6.5096784099
 C         1.5909813990        3.9125671339       -6.0860792148
 C         1.9006320041        1.9553256698       -7.5850765597
 H        -1.8640141740        5.5500216983        2.6673394394
 H        -3.2602798755        4.8772465037        3.7349528887
 H        -1.6106508148        5.2912594791        4.3606162176
 H        -4.9268014931        0.2588072102        4.7786450297
 H        -5.0405069796        1.8394176557        5.5252453587
 H        -0.6007021872        1.6455462987        5.3474193564
 H        -1.0182439439        0.8185175118        3.7696639219
 H        -1.8292759176        0.4140379543        5.2734956772
 H        -3.9280063720        3.2996809453        5.6842851739
 H        -2.8664106480        2.2172444773        6.5227553917
 H        -2.1333906518        3.6964672996        6.0860331251
 H        -6.1764074389        0.8097117066        2.7223156786
 H        -7.1704808898        1.3074205691        4.1011513953
 H        -6.2925985044        5.8342115359        0.3366894750
 H        -5.0026113749        5.0044609392        1.3834179387
 H        -8.3981390569        1.7755900735        1.7324455798
 H        -9.1506659263        3.0965418644        1.1751865043
 H        -9.1258777982        2.7690813773        3.0871342677
 H        -8.4749139816        5.0308981358        3.2539945144
 H        -6.8003474413        5.6838911635        2.8362596619
 H        -8.1196812563        5.6658787840        1.5964399407
 H        -4.1887955644        5.8288996498       -0.8811048436
 H        -5.4353724062        4.8469987346       -1.7217820545
 H        -3.8972019638        0.4468533406       -3.2662527962
 H        -2.4734769088        0.4939403519       -3.9796549273
 H        -5.3879485507        1.7841646006       -1.9628255974
 H        -4.8637461763        1.9717729039       -3.7742871726
 H        -5.7977069921        3.1563363408       -3.1341459606
 H        -3.4537170797        4.9269248179       -3.2812759602
 H        -1.9476900097        4.1836656868       -2.6579046305
 H        -2.9191456280        3.7037827659       -4.1532057279
 H        -2.8953159832       -1.6590406690       -3.0933528679
 H        -1.4252460565       -1.1871524030       -2.3261512387
 H        -0.3624496109       -3.7182117325        0.7670806091
 H         0.2637099509       -2.6764663520       -0.6013181069
 H        -4.3435761333       -2.5271157405        0.7117672643
 H        -3.4878558914       -1.4832222148        1.6859713409
 H        -3.0831975650       -3.0883224420        1.6861396817
 H        -2.1807814685       -4.3319484242       -0.1336733559
 H        -3.4336075792       -3.7666037912       -1.2419030049
 H        -1.6385623734       -3.5576193220       -1.6611064670
 H         1.4739024724       -1.1695486438        1.0087300056
 H         1.9395249363       -2.9393390171        1.0839787182
 H         2.6749508411       -4.1542527833        4.9915857321
 H         1.9677600246       -4.7779160594        3.5682354523
 H         3.6827106170        0.0035591877        3.8534801592
 H         2.0517765998        0.6758008318        3.7827964569
 H         3.0571288850       -0.0106121637        2.3584356116
 H         1.0354782818       -2.4713086271        5.3586091536
 H         2.4471298724       -1.4881157861        5.8489704248
 H         1.0196631412       -0.7355869394        5.4410610947
 H         4.9665644253       -4.7706432957        3.7399435033
 H         3.9182490226       -6.1700110951        3.8755972974
 H         3.4350938997       -3.5443924322       -0.0261070705
 H         5.0412802737       -3.2486569414        0.4999671732
 H         6.5763874428       -4.6613259356        1.7695051586
 H         7.0312008566       -5.9259816608        0.7518006168
 H         6.5794961282       -6.3661972358        2.3955888250
 H         5.6774835014       -7.6726909869        0.0643402086
 H         4.7984592515       -7.8694571050        1.5953351025
 H         3.8857059475       -7.5534921534        0.1167013679
 H         4.8942451837       -3.6697546638       -2.3805502755
 H         5.7511514065       -2.3598569911       -1.4661079434
 H         1.3925715702       -0.1111780023       -2.9126324849
 H         2.1869684701        1.1957988786       -1.8960062129
 H         5.4968804983       -2.3230026561       -4.3700670702
 H         5.9257539932       -1.0039086468       -3.2863211543
 H         5.2825009539       -0.7361451340       -4.7881178725
 H         3.0630725234       -1.4482900917       -5.3838226963
 H         3.0602855882       -3.0096835303       -4.6278844051
 H         1.8117790137       -1.8352725364       -4.3024916493
 H         0.9245569673        2.5569137039       -3.5314432460
 H         2.5499299089        2.6642455889       -3.9387508873
 H        -2.0097047007        1.8861132656       -7.9927690653
 H        -0.3788847498        1.3509947549       -8.5194257187
 H        -1.1353497653        0.5941785872       -7.0366805405
 H         2.6775443319        3.8066236972       -5.8332342818
 H         1.1637310707        4.2887872226       -5.1765822591
 H         1.5262690422        4.5513195452       -7.0778268730
 H         2.9557170482        2.1452803231       -7.4753624221
 H         1.7179265111        0.9547340099       -7.9872678689
 H         1.5912128157        2.5637529086       -8.4488929128
 Na       -1.9005053052        1.3765853889        0.8090345021
