155

 C        -2.1008762878        4.5141184175        3.7565365258
 C        -2.1982593714        3.0429361282        3.7010716389
 C        -3.0184139411        2.1943441411        4.7593438895
 C        -4.0857361297        1.3492490132        3.8380671371
 C        -5.3918073274        0.9550789857        4.4951807898
 C        -1.9911814860        1.2576616610        5.3696093126
 C        -3.8143352431        3.0187161839        5.7342627821
 O        -1.5130925175        2.5171683496        2.7964436905
 O        -3.8653263035        0.9130867689        2.7413581419
 C        -6.4846341910        1.1685799351        3.4283207385
 C        -6.5634964007        2.7690097382        3.0120873118
 C        -7.3932121934        3.1771557677        1.7614755848
 C        -6.2488789951        3.5143339469        0.6201620378
 C        -5.7799028719        5.0309946467        0.4239954642
 O        -6.0066196996        3.5674355550        3.6565455128
 O        -5.7656451603        2.6138014489       -0.0473792493
 C        -8.3160897130        2.0367591101        1.1459580863
 C        -8.4093062787        4.3324136860        2.1709263129
 C        -4.9339583595        5.2408505079       -0.8867494883
 C        -3.9718920175        4.0909346008       -0.9643381643
 C        -3.6788641761        3.3799561416       -2.3062591561
 C        -2.7317643466        2.0977305757       -2.2131389922
 C        -3.1000253943        0.8046705147       -3.1463435017
 C        -5.0772024775        3.0819981600       -3.0646528104
 C        -2.8658396962        4.4501188773       -3.2405283413
 O        -3.3132625889        3.6265802076       -0.0067551724
 O        -1.7670904657        2.0461909207       -1.4612712870
 C        -2.3638751438       -0.3877045721       -2.5564709289
 C        -2.8154547347       -0.7269592480       -1.1214150520
 C        -2.1607482063       -1.9788471713       -0.2511754755
 C        -0.7193381680       -1.4065246101        0.1494794889
 C         0.3868783681       -2.4794499694        0.2454728743
 O        -3.5251434838        0.0502716140       -0.5604458495
 O        -0.5309040476       -0.1943215681        0.2650381813
 C        -3.0347064279       -2.0306788168        0.9719147701
 C        -2.1563945676       -3.3706554582       -1.1432752497
 C         1.4655427183       -2.0341010348        1.3014364904
 C         0.9442433493       -2.2771851610        2.6663335453
 C         1.9401129626       -2.1209412545        3.8988263095
 C         3.0332141426       -3.2318055004        3.9084963915
 C         2.7935584075       -4.6925435360        4.4301291367
 C         2.6319926686       -0.7095655471        3.7258315892
 C         1.1906552109       -2.1518476497        5.2210806533
 O        -0.1864107976       -2.5921319332        2.9518812180
 O         4.0712204075       -3.0017553816        3.2956464506
 C         3.5018721806       -5.6733319676        3.5406030454
 C         3.7330374331       -5.2887869647        2.0049865026
 C         5.0808795965       -5.6577066967        1.3447046242
 C         5.0483063033       -5.1253601395       -0.2494821811
 C         4.6205791317       -3.6493554778       -0.4176282582
 O         2.6907536399       -4.9387240938        1.4361949108
 O         5.4318642005       -5.8174682610       -1.1216784124
 C         6.1454278793       -4.8549745737        2.1500659714
 C         5.3051051022       -7.1712589014        1.3684643883
 C         4.8777721551       -2.9885501885       -1.7659112207
 C         4.5163324829       -1.4637636027       -1.8369022757
 C         4.5574054229       -0.8926692096       -3.3944776285
 C         3.6507750420        0.3687486453       -3.4347394340
 C         2.0162675008        0.1245552676       -3.2539894655
 C         6.0228997243       -0.3881806455       -3.6788878839
 C         4.1300460172       -1.9482903127       -4.4874330591
 O         4.2666925843       -0.8109115013       -0.8807130353
 O         4.0363061038        1.4754084612       -3.7437922457
 C         1.1307968212        1.2131627041       -3.8522848220
 C         1.3006790054        1.1139506371       -5.4553840202
 C         0.9423274065        2.3695669005       -6.4200417228
 C        -0.5716245629        2.5047592211       -6.7959975912
 C        -1.2310801849        1.2332555608       -7.3134797106
 O         1.8029760659        0.1221493723       -5.8592893522
 O        -1.2571602775        3.5396059644       -6.7389378595
 C         1.3359131358        3.7177877096       -5.7398436707
 C         1.7348310646        2.1757334055       -7.8574492939
 H        -1.6959942832        4.8576693996        2.8310606515
 H        -3.0500054855        4.9991157633        3.9387565097
 H        -1.5054728984        4.7605436125        4.6621033202
 H        -5.3972280843       -0.0939661871        4.7505787191
 H        -5.5649792074        1.4280828595        5.4960645396
 H        -1.3291557944        1.8732324824        5.9775604120
 H        -1.3335509607        0.7431543264        4.6991822925
 H        -2.5873773697        0.5816786431        5.9976061288
 H        -4.4529873819        3.6807584707        5.2392570536
 H        -4.3412340294        2.2990635608        6.3102538575
 H        -3.1430119389        3.6907569875        6.3335908368
 H        -6.0842902926        0.6518306117        2.5564701370
 H        -7.4142742775        0.9407909791        3.8086458547
 H        -6.6312558069        5.7027539199        0.4531600445
 H        -5.2232714832        5.3606891870        1.2731715269
 H        -7.7524683804        1.0985155667        1.2232193799
 H        -8.6847821628        2.3391248306        0.1086804358
 H        -9.1902084076        1.9973017960        1.6875166005
 H        -9.3558525047        3.8710016738        2.1720794198
 H        -8.2845822634        4.6900144390        3.1407053030
 H        -8.4098538638        5.0702227913        1.3424009552
 H        -4.3985469926        6.1566110583       -0.7261638318
 H        -5.4862871492        5.3255015994       -1.7838984101
 H        -4.1596719559        0.7479184094       -3.2623749656
 H        -2.5581470063        0.9821120373       -4.1019407134
 H        -5.7019710690        2.4198540932       -2.5362177615
 H        -4.9402250945        2.5856786442       -3.9638125785
 H        -5.6223492553        3.9606188524       -3.2125669494
 H        -3.4008553150        5.4224131708       -3.2557037491
 H        -1.9577743394        4.7602898347       -2.9144469809
 H        -2.6057706341        3.9774944768       -4.2003242084
 H        -2.6217889571       -1.1735849874       -3.2417012401
 H        -1.3019763447       -0.1265822937       -2.6027670159
 H         0.0014651829       -3.5129931215        0.5524535182
 H         0.8587623452       -2.5365975805       -0.7401503918
 H        -4.0667620124       -2.3740536913        0.8041047094
 H        -3.0097400348       -1.0817570295        1.4639008038
 H        -2.6333088331       -2.7206390634        1.8194451132
 H        -2.0444525423       -4.2743123064       -0.5745047109
 H        -3.1616402968       -3.2606674564       -1.6576390681
 H        -1.3984356004       -3.1706443729       -1.8638727141
 H         1.7819459372       -1.0242569735        1.3213122200
 H         2.3473674698       -2.7090998652        1.1699593811
 H         3.1363939284       -4.7334336524        5.4284046060
 H         1.7374368448       -5.0845468948        4.5093987589
 H         3.0764842443       -0.5058583648        4.7033419197
 H         1.9721052498        0.0549531460        3.4021892600
 H         3.4015223030       -0.6707028415        2.8622583866
 H         0.5713012894       -3.0564195105        5.2715574605
 H         1.8555438303       -2.3552845854        5.9925961062
 H         0.5257930174       -1.2846834955        5.4305741823
 H         4.3908381274       -5.9606895710        4.0043145035
 H         2.9216907988       -6.5938928503        3.4549521999
 H         3.5603192777       -3.6557531999       -0.1620365443
 H         5.1682293948       -3.0779595467        0.3855079934
 H         5.9007140942       -3.7772731417        2.0675992718
 H         7.1324989425       -5.2542566202        1.7103323766
 H         6.1100164136       -5.1423572172        3.2406195747
 H         4.8997826613       -7.8042566387        0.5638078059
 H         6.3473401513       -7.3946041873        1.5059513485
 H         4.8640243326       -7.5606386674        2.3180710114
 H         4.3770279376       -3.4544444664       -2.6022013205
 H         5.9980248645       -3.0668567305       -1.9827259299
 H         1.6711875432       -0.8913450229       -3.6019499000
 H         1.8018002671        0.0142866838       -2.1584661187
 H         6.8102674986       -1.1141864935       -3.9709030354
 H         6.5089528707        0.1597443313       -2.8055739403
 H         5.8594785139        0.3970358356       -4.4036916892
 H         3.9720502095       -1.5236194014       -5.5042282526
 H         4.9190971970       -2.7255251939       -4.6610477906
 H         3.1617856830       -2.4386587954       -4.1983789240
 H         0.0598295392        1.0420716628       -3.6592599614
 H         1.5099001196        2.1674247628       -3.5288906987
 H        -1.5980506091        1.5252802670       -8.2878426757
 H        -0.4965623709        0.4387468195       -7.4405346782
 H        -2.0360599805        1.0318799439       -6.6076925873
 H         2.4464957234        3.6900609318       -5.7599951298
 H         0.8667045266        3.8852145532       -4.6867472767
 H         0.9971062354        4.5293489347       -6.2767986330
 H         2.8656749241        2.3827889694       -7.6933137669
 H         1.7465419655        1.2082045952       -8.3109703772
 H         1.4263440424        2.9022825980       -8.5468620262
 Na       -2.3637422800        1.6153686736        0.7850875153
