155

 C        -8.0856678109       -0.8550242488        2.7839323139
 C        -6.9746854968       -0.9668366289        1.8049911606
 C        -6.9106499191       -2.0277137425        0.6626696316
 C        -6.4990903956       -1.3938098256       -0.7820187787
 C        -7.5316614837       -1.2175901783       -1.8415331876
 C        -5.6868934721       -3.0476389169        1.0083853220
 C        -8.0979863087       -2.9218361379        0.4170145148
 O        -6.1068628667       -0.0848257406        1.7318477812
 O        -5.3328484781       -1.1364838296       -1.0847693092
 C        -7.6086031942        0.2395905928       -2.2765058189
 C        -8.3157662390        1.1282885238       -1.1755178926
 C        -8.5166889467        2.7037349814       -1.5805087451
 C        -7.2514171555        3.5110545437       -1.0180908591
 C        -7.2565372498        4.1464625459        0.4263692735
 O        -8.6477104745        0.7337392146       -0.1161635426
 O        -6.3124244703        3.8150484332       -1.6936452597
 C        -8.6003791426        2.9108973970       -3.1121283832
 C        -9.7486625972        3.1495308459       -0.8450568237
 C        -5.9232124196        4.5542105099        0.9354233399
 C        -5.0139252551        3.3184500437        1.1650001260
 C        -4.1063233949        3.1772417939        2.4963863192
 C        -3.0121901534        2.1779632777        2.1731240158
 C        -1.8441976884        2.7405690909        1.2528015216
 C        -3.6228561985        4.6047637597        2.7610828401
 C        -4.9937216113        2.6483422301        3.6045309911
 O        -4.8921762172        2.5859402646        0.2099320304
 O        -3.1101219214        1.0494771080        2.6189622393
 C        -0.9258296312        1.4714308358        0.9577488464
 C        -1.3358840562        0.5392949004       -0.2919190328
 C        -0.5314109721       -0.7863493922       -0.4188380536
 C        -1.1927671396       -1.8703897171        0.5248990798
 C        -0.5412000402       -3.2481221233        0.6924744084
 O        -2.2035033164        0.8261719629       -1.1169551259
 O        -2.2044497192       -1.6602527444        1.1487245854
 C        -0.6321146029       -1.2655601923       -1.8879954954
 C         0.9851708905       -0.5673644680       -0.1067281545
 C         0.3212932266       -3.3124643600        1.9753740083
 C         1.2356946656       -4.5365664156        1.9846010101
 C         1.8216781052       -4.9801107590        3.3855312073
 C         2.3180169032       -3.6384099562        4.1886691824
 C         3.7803286867       -3.2073051582        3.8021765963
 C         0.8278053963       -5.7608332723        4.2461377005
 C         3.0664288340       -5.8064835730        3.0959472387
 O         1.4260838193       -5.1100122476        0.9000394374
 O         1.6434166945       -2.9830176236        4.9411978445
 C         3.9771576132       -1.7538099984        4.1838639615
 C         3.1046361071       -0.7727115324        3.3867365435
 C         2.8500459049        0.7562365646        3.8070634913
 C         2.8350607171        1.6496267193        2.5025641953
 C         4.1583732584        2.0501293822        1.7632708897
 O         2.6956577586       -1.0658045497        2.2689478192
 O         1.7870027998        2.0927130016        2.1436503172
 C         1.4466238638        0.7699541885        4.4324597421
 C         3.8131743590        1.3647745244        4.8739971778
 C         4.2273831891        1.8144327613        0.2663088424
 C         5.3612977352        2.7360278991       -0.3077268983
 C         5.5004755906        2.8683373816       -1.8708883695
 C         5.2941069160        1.4951419170       -2.6474388781
 C         5.7483666931        1.3884764051       -4.1027463191
 C         4.4479895276        3.8697238165       -2.4923063122
 C         6.9973586748        3.3502854540       -2.0891305215
 O         6.0891797516        3.3393192914        0.4526096968
 O         4.8104379830        0.5019847019       -2.1103215088
 C         5.3593996779        0.1364633653       -4.8433889803
 C         5.4389085164        0.1233227803       -6.4019617068
 C         5.6350386202       -1.2598534007       -7.0426750048
 C         7.2894036245       -1.3507417587       -7.0582811493
 C         7.9620663836       -1.4715894716       -8.4159162815
 O         5.5784079538        1.1316922575       -7.0327090248
 O         7.8945257622       -1.4881510066       -6.0526262413
 C         4.9842887197       -2.4998433218       -6.2517087751
 C         5.0474258761       -1.4178472541       -8.4737095200
 H        -8.8301842312       -0.3581515938        2.0597403481
 H        -8.3500801980       -1.8326795200        3.1441320217
 H        -7.7258580728       -0.1743028083        3.6143161225
 H        -7.3200880439       -1.8287054621       -2.7120520644
 H        -8.4799127713       -1.7056233559       -1.4948263733
 H        -5.5294269267       -3.6482707947        0.1927062181
 H        -5.9555510793       -3.6397842207        1.8728609674
 H        -4.7192502084       -2.5436401995        1.2779174433
 H        -9.0286964566       -2.3832781491        0.6802081147
 H        -8.0444356389       -3.1757496250       -0.6156330147
 H        -8.0162825770       -3.6619062803        1.1215751919
 H        -6.6206406203        0.7137119235       -2.5470462457
 H        -8.2401284302        0.2645006067       -3.2100758691
 H        -7.8912508994        5.0458884048        0.3911102038
 H        -7.6981631188        3.4533535096        1.0849721922
 H        -7.8665442430        2.3053041375       -3.6408072653
 H        -8.4318752918        4.0513026133       -3.2683451952
 H        -9.6292740261        2.7454193410       -3.4901625189
 H       -10.6183990574        2.4669471967       -0.9640513266
 H        -9.5782662372        2.9716672850        0.2468524125
 H        -9.9846479749        4.1910174909       -1.0086968537
 H        -6.1353763105        5.2341360087        1.8019970851
 H        -5.4980499191        5.1503477984        0.1485432330
 H        -2.0092838494        3.2310689788        0.2880572235
 H        -1.3455794439        3.3017921102        2.0175647981
 H        -3.2332091892        4.9013154720        1.7852644086
 H        -2.9561546161        4.5512163114        3.6340381404
 H        -4.3864342156        5.2898326294        3.1485743485
 H        -6.0216227130        2.8738946775        3.6305709192
 H        -4.9287245353        1.5400826290        3.6047705758
 H        -4.5460307191        3.0503470500        4.4507245563
 H         0.0567624933        1.9241335848        0.6450436983
 H        -0.7353313891        0.8118961105        1.8266640887
 H        -1.3361443310       -3.9462052935        0.7655481033
 H         0.1677204129       -3.6163437153       -0.0934214851
 H        -1.0165965281       -0.6771624903       -2.6477284962
 H        -1.1891862373       -2.2477670692       -1.9446531176
 H         0.3053392851       -1.5241316201       -2.3117761257
 H         1.5064528281       -1.4830568875       -0.3967296648
 H         1.3837625956        0.2984919280       -0.5935613460
 H         1.0816945155       -0.4123897147        0.9509198695
 H        -0.2740823142       -3.2850324801        2.9037253497
 H         0.9109843511       -2.4045789302        2.0128367399
 H         4.5321963648       -3.7468214764        4.3294813428
 H         3.9805294918       -3.2463236952        2.7329125391
 H         0.3763437920       -6.6285163979        3.7585193895
 H         0.1041203350       -5.1758241517        4.6905539664
 H         1.3631760166       -6.2609163514        5.1130134560
 H         3.6467666715       -5.4000025535        2.2029895891
 H         3.8582400515       -5.9205133049        3.8185066332
 H         2.7011589795       -6.7229841922        2.7396717598
 H         3.8913341625       -1.6590667522        5.3106282006
 H         5.0611830773       -1.4694858783        3.8294558272
 H         4.4476398842        3.1285050437        2.0422305322
 H         5.0440804843        1.5875278587        2.2095741653
 H         0.8064390530        0.0807610397        3.7681702482
 H         1.1210824499        1.8186261050        4.3895464659
 H         1.4853932835        0.3488143282        5.4347633586
 H         3.3987869786        2.2946738817        5.2761033111
 H         3.9774195198        0.5648154638        5.6253953693
 H         4.7634586322        1.6017945636        4.4568452287
 H         3.2351075653        2.0539848771       -0.2255351230
 H         4.3413872428        0.7279504034        0.1030015293
 H         5.3101095410        2.2661840797       -4.6256826445
 H         6.8078950195        1.4898721943       -3.9849758689
 H         4.6256348536        4.8252946929       -2.1161138984
 H         3.4656869021        3.5259813076       -2.1960892702
 H         4.5620345822        3.9802123299       -3.5408582617
 H         7.2220964401        3.7070934491       -3.1076846519
 H         7.1889516409        4.1757394519       -1.4505403033
 H         7.7541721577        2.5293452611       -1.9596493319
 H         5.8718910727       -0.7675621421       -4.4779812988
 H         4.3242921195       -0.1235574188       -4.6462617262
 H         7.5204062074       -0.8899682058       -9.2397462151
 H         9.0048287672       -1.2173752528       -8.3356788447
 H         7.9652657315       -2.5372144133       -8.6650818286
 H         5.8571514715       -3.1440597773       -6.0607187785
 H         4.3900118496       -3.0736176315       -6.9502983961
 H         4.4000878519       -2.3107760852       -5.2442993292
 H         3.9899840441       -1.4520267945       -8.5709537339
 H         5.2598367947       -0.4301235653       -8.9723441311
 H         5.6313867760       -2.1425733151       -9.0511251004
 Na       -4.0776796158        0.1428001676        0.6464825364
