155

 C        -7.7516732932       -3.8264628162        0.7928759714
 C        -6.6528656085       -3.2298840169       -0.0477267411
 C        -6.7882377649       -3.2862474123       -1.6670619025
 C        -6.8963512849       -1.7391278295       -2.0721419538
 C        -8.1432907894       -1.2654604754       -2.8090163933
 C        -5.4440783105       -3.6967686872       -2.2397345927
 C        -7.9001729698       -4.2686170591       -2.1152245208
 O        -5.8056404038       -2.4669644975        0.4236779028
 O        -5.9447156469       -0.9716878191       -1.8774401799
 C        -8.1815458018        0.3335565674       -2.7513889492
 C        -8.0425162511        0.9226690752       -1.3194721736
 C        -7.8600408767        2.5040860662       -1.3047371826
 C        -6.9219282627        2.8682712357       -0.1380187149
 C        -7.3548029901        2.6461116073        1.3252532331
 O        -8.2629053386        0.2706207735       -0.3560931563
 O        -5.7053074303        3.0469942317       -0.3627234375
 C        -7.3844608329        3.1693379746       -2.6343088313
 C        -9.2386721857        3.0702843804       -0.8524467980
 C        -6.1305118806        2.8079412564        2.2580293105
 C        -4.9679577786        1.9344995198        1.7648184673
 C        -3.5192290609        2.4352542714        2.0281049907
 C        -2.5279774565        1.6018257302        1.1223652350
 C        -1.4698581595        2.3413189055        0.2569746985
 C        -3.2934500961        3.9842698436        1.8089473722
 C        -3.1870704933        2.1463091557        3.5944512008
 O        -5.2357094412        0.9959988651        1.1076290245
 O        -2.5771980025        0.3651116466        1.2063847483
 C        -0.5908076250        1.3765026777       -0.5025243660
 C        -1.5224985975        0.4830208907       -1.4368630636
 C        -0.8829494619       -0.8602534438       -1.8856299715
 C        -1.2424974876       -1.9274599164       -0.7426521557
 C        -0.1784333356       -2.9561224135       -0.4852698523
 O        -2.7070349865        0.6672302146       -1.6612845595
 O        -2.3145807552       -1.8534833198       -0.1975819523
 C        -1.6508972050       -1.5296648447       -3.1236583809
 C         0.5721410854       -0.7537462314       -2.1738070079
 C         0.2881301373       -2.9328538290        0.9277700715
 C         1.7416549132       -3.3847812592        1.1201678101
 C         2.1335175929       -3.7836892099        2.5859619168
 C         2.5124831512       -2.5672166452        3.4314640693
 C         3.6131950639       -1.6966500793        2.7634500207
 C         0.9055596878       -4.5256531706        3.2315473808
 C         3.3757664794       -4.6834196418        2.4545710272
 O         2.5919672906       -3.2522214378        0.2539447465
 O         2.0819409829       -2.3936610205        4.5209230553
 C         3.6589680691       -0.3713204841        3.4324280350
 C         2.2800800853        0.2673965587        3.3012506657
 C         1.8461556392        1.5431784165        4.2081634491
 C         1.9725155988        2.6437949226        3.1183436131
 C         3.3221819726        3.2011175407        2.7494412294
 O         1.4629746696       -0.0142816616        2.4469197865
 O         1.0458720866        2.7591730167        2.2920264085
 C         0.3600570849        1.3601169666        4.5788671821
 C         2.7995632162        1.8810595571        5.4217641634
 C         3.5465953912        2.8769401701        1.2479337129
 C         5.0312991960        3.3422367992        0.8037086994
 C         5.3370073739        3.5259737685       -0.7610088221
 C         4.5779189672        2.4602270785       -1.6677766810
 C         5.1279638250        2.1843466927       -3.1020600598
 C         4.8099169670        4.9367845753       -1.2014138818
 C         6.8317910129        3.6709000260       -1.0050288477
 O         5.9296688219        3.3623536443        1.6674541324
 O         3.6960974426        1.8111619124       -1.1591641782
 C         5.2852433152        0.6926682342       -3.1971766284
 C         5.9468576852        0.2097798495       -4.5045384309
 C         6.2850780335       -1.2411292508       -4.6554063355
 C         7.4949451305       -1.4594469464       -3.6092719240
 C         8.8067918098       -2.1569706315       -4.0046088616
 O         6.2624954866        1.0203334813       -5.3309841533
 O         7.3336363764       -1.1087828577       -2.4674609046
 C         5.1413246872       -2.2090394727       -4.1172511714
 C         6.7566000960       -1.6718685836       -6.1122276067
 H        -7.7068928801       -3.2028126665        1.7124702542
 H        -8.7697201558       -3.4447762361        0.3755350130
 H        -7.6542528068       -4.9242936902        0.8211386736
 H        -8.1919077012       -1.6122424688       -3.8647679431
 H        -9.0695373054       -1.6385731802       -2.3771089939
 H        -5.4265817404       -3.6615436669       -3.3218308389
 H        -5.2512139333       -4.7955946128       -2.0073307657
 H        -4.7258286972       -3.0771430950       -1.8409274207
 H        -8.8456400421       -3.9865535997       -1.5805425882
 H        -8.0843155187       -4.0028037625       -3.1798654572
 H        -7.5007347379       -5.3253285192       -2.0862283605
 H        -7.4566152709        0.6720014738       -3.4111781782
 H        -9.1965991116        0.7720870829       -3.0674723221
 H        -8.1452683013        3.3510153102        1.6799357989
 H        -7.7990454468        1.6316984468        1.4270010495
 H        -6.7445178152        2.5638964432       -3.1544268527
 H        -6.8703954460        4.0625288989       -2.3258005371
 H        -8.2117799838        3.3819979429       -3.2437905171
 H        -9.9390132639        3.0325870481       -1.7207360668
 H        -9.5836409749        2.5245460609        0.0651772946
 H        -9.0859745155        4.1420188615       -0.7562202714
 H        -6.3538973291        2.7876444086        3.3198502426
 H        -5.7386688296        3.8047187400        2.1036554400
 H        -1.9887741952        2.8983525009       -0.5339615303
 H        -0.9766287196        3.0386173642        0.9769779166
 H        -3.8244260789        4.3905850463        0.9479213490
 H        -2.2436629966        4.3496869588        1.6057212153
 H        -3.5944722830        4.5809258584        2.6912514461
 H        -3.5619360138        2.8596167833        4.3033190832
 H        -3.6098367104        1.2387566087        4.0105683383
 H        -2.1029198882        2.0651598007        3.6384809577
 H         0.1128202024        1.8267819718       -1.1887868515
 H         0.0121001814        0.8065187048        0.1793449083
 H        -0.6731817453       -3.8691959285       -0.7789421556
 H         0.5803058063       -2.7241348876       -1.2125308893
 H        -2.6151351378       -1.0089912287       -3.3029802055
 H        -1.7968171406       -2.5717574256       -2.9486948458
 H        -1.0609594537       -1.3717483653       -4.0487601234
 H         1.2006435262       -1.5762417033       -2.5695739874
 H         0.7541871291       -0.0271165886       -2.9620473833
 H         1.2148120123       -0.4578669058       -1.3972877158
 H        -0.3580250006       -3.5352144287        1.4926466205
 H         0.2186133695       -1.8786236270        1.2907519865
 H         4.5838069669       -2.2697428337        2.8300071905
 H         3.4597887434       -1.5459800776        1.6858797578
 H         0.5827571344       -5.3116913048        2.6121558252
 H         0.1062616215       -3.8186237844        3.4280773340
 H         1.3199050722       -4.9162157609        4.2353234940
 H         4.2596307194       -4.1342797976        2.0344968487
 H         3.7256711031       -4.9945694895        3.4457096027
 H         3.1175345094       -5.5699667039        1.9329704094
 H         3.9004935550       -0.4564010245        4.4544592666
 H         4.3612324766        0.3205048830        3.0192969323
 H         3.3627890078        4.2691677304        2.8586511627
 H         4.1988321693        2.8697729528        3.2949011009
 H        -0.0407379746        0.5753856704        3.8201692609
 H        -0.2747561583        2.2928958602        4.4375947593
 H         0.1703454952        0.8985003649        5.5791800179
 H         2.5930748018        2.8492445605        5.8710465284
 H         2.5495676635        1.2282509889        6.2633109584
 H         3.8434382306        1.7977829477        5.2238390103
 H         2.6502516329        3.2726997907        0.7042345441
 H         3.4937360119        1.7534665563        1.1038858113
 H         4.2691349492        2.5041746732       -3.7646663874
 H         6.0381649453        2.6835069447       -3.2913612200
 H         4.9714859106        5.6873328546       -0.3493067058
 H         3.7674850124        5.0810387080       -1.3624450931
 H         5.2080007296        5.1796086840       -2.2140432581
 H         7.0499706175        3.8855951053       -2.0458200307
 H         7.2511306472        4.5502191032       -0.4082484059
 H         7.2913143455        2.7062450736       -0.7049183837
 H         5.8697790147        0.3945636802       -2.3132363120
 H         4.2883232871        0.2691757985       -3.0424301317
 H         9.5311801339       -1.4396413899       -4.4105175266
 H         9.2347288297       -2.4422908834       -3.0678313317
 H         8.6715960815       -2.9785426515       -4.7146161764
 H         5.0389704408       -2.2369406958       -2.9665645309
 H         5.4120302254       -3.1714037215       -4.4067706591
 H         4.1443165434       -1.9893387936       -4.5187369363
 H         5.9444563984       -1.2877786898       -6.6767628089
 H         7.6974014304       -1.0590238340       -6.2257479357
 H         6.9077703860       -2.7039742584       -6.4366287096
 Na       -4.2488496828       -0.7701107714       -0.2220087559
