155

 C        -7.3841419396       -4.4353242456        0.0614594814
 C        -6.2738184183       -3.4685460975       -0.3584989780
 C        -6.3215592844       -3.0439636710       -1.9629669143
 C        -6.4253419682       -1.3903086430       -2.0911397235
 C        -7.5592957477       -0.8095596519       -2.8358357931
 C        -4.8746083357       -3.4608011438       -2.4881510960
 C        -7.4425291446       -3.6327932733       -2.8670423445
 O        -5.4923420428       -2.9478508928        0.4007762485
 O        -5.6320103728       -0.6577975267       -1.5287381727
 C        -7.5941697846        0.7441373484       -2.7521412465
 C        -8.5098170287        1.2597077533       -1.6393425599
 C        -8.4141694390        2.8223042479       -1.2659828808
 C        -7.4028537272        2.9560363745       -0.1294582733
 C        -7.6336820286        2.3494059108        1.2170833859
 O        -9.2327482098        0.5018731828       -1.1014789466
 O        -6.3309461198        3.5515488349       -0.3165863256
 C        -8.0465699539        3.8488689387       -2.4656602361
 C        -9.7757147697        3.1091566297       -0.7604928769
 C        -6.2971026403        2.4583045520        2.1662026833
 C        -5.1203470082        1.6254630057        1.6232717730
 C        -3.7492338322        1.8949718506        2.2972360800
 C        -2.6555971524        1.2794749090        1.3917672270
 C        -2.1676935944        1.9887262332        0.0812479322
 C        -3.5040176835        3.3956174174        2.5202068639
 C        -3.8970884852        1.0486467247        3.5459815221
 O        -5.3062234397        0.8033773429        0.7324133890
 O        -2.3628248905        0.1602584718        1.5958003227
 C        -1.0346102235        1.2229470055       -0.6164292574
 C        -1.5985232384        0.0315291614       -1.4652665993
 C        -0.6731286341       -1.1276602946       -2.0682076352
 C        -0.8778516968       -2.2386162925       -0.8845157304
 C         0.3035401123       -3.2577224530       -0.6368426389
 O        -2.7266480709        0.0433924395       -1.8323821744
 O        -1.8393668998       -2.4754184353       -0.1738408517
 C        -1.3239853523       -1.7392509672       -3.3719754988
 C         0.7881018222       -0.7305293785       -2.3655297521
 C         1.0615977613       -2.7444039252        0.6654083126
 C         2.1937619282       -3.7253253304        1.0417980980
 C         2.4042150756       -4.0034409850        2.5540112990
 C         2.5603927386       -2.5398243510        3.1219034400
 C         3.7369706296       -1.6338227984        2.8582909100
 C         1.1367266429       -4.5204526719        3.2581887548
 C         3.6136346531       -4.9203057262        2.9326750877
 O         3.0568672849       -4.0635389436        0.2411560300
 O         1.7186222507       -2.0743275480        3.8067290020
 C         3.5233201296       -0.2338301776        3.4771686759
 C         2.3822453462        0.5591996679        2.9407906238
 C         1.3984976043        1.5252980619        3.7953633824
 C         1.5347396534        2.9630097081        3.0607954381
 C         2.9755374543        3.4659124483        2.6266638617
 O         2.2031180797        0.6132932700        1.7166552489
 O         0.5960157413        3.7346700856        2.8360518409
 C        -0.0349828808        0.9103192239        3.6244349783
 C         1.7316418181        1.6471809043        5.3215136827
 C         3.1042731348        3.7034592437        1.0870563321
 C         4.6000059305        3.4611384870        0.6025461286
 C         5.1313346659        4.1246106428       -0.6486265008
 C         4.7522284256        3.0584792947       -1.7895334289
 C         5.7985587752        2.0170027167       -2.2339329727
 C         4.3879012537        5.5070466849       -0.9141250946
 C         6.6878183962        4.2305561515       -0.5908525123
 O         5.4077485132        2.7210534020        1.2260716763
 O         3.6782427348        3.0493992532       -2.2955624905
 C         5.2331711351        0.7173570956       -2.8522921056
 C         6.0996109287        0.1951275398       -4.0309186017
 C         6.6198184560       -1.3764311081       -3.9040324528
 C         7.6710418281       -1.4465143894       -2.7596694235
 C         8.4038335280       -2.7637323979       -2.3963996459
 O         6.4536042256        0.8931910073       -4.9190380353
 O         7.8801365451       -0.4725288317       -2.0885867637
 C         5.3733271580       -2.2526209390       -3.5378964862
 C         7.3071698839       -1.6884772389       -5.2455047213
 H        -7.3218307718       -4.5641254854        1.1621148786
 H        -8.4228904631       -4.1853532085       -0.3742110397
 H        -7.0424660581       -5.4070500999       -0.3746114670
 H        -7.7099263794       -1.1912563599       -3.8100726728
 H        -8.5099808909       -1.0044139130       -2.2568203346
 H        -4.7507567949       -3.2703250303       -3.5420914369
 H        -4.7483905051       -4.5799116523       -2.2784438330
 H        -4.0825042019       -3.0195447815       -1.9508604158
 H        -8.5018970167       -3.2505568510       -2.6104367935
 H        -7.2451057499       -3.6043069005       -3.9451629552
 H        -7.5283015634       -4.7698411802       -2.8147816494
 H        -6.5337417147        1.2057787430       -2.7480312653
 H        -8.0386220188        1.1613690263       -3.6600212463
 H        -8.5434605601        2.8152800103        1.6693958546
 H        -7.8413453140        1.2815056468        1.0502528484
 H        -7.0178919818        4.0538130284       -2.5659193544
 H        -8.5304170907        4.8168128082       -2.3345467593
 H        -8.4412453685        3.4490044400       -3.3342858704
 H       -10.5136729081        3.1452813247       -1.5518759262
 H       -10.0946095212        2.2864654901       -0.0565485743
 H        -9.8075813184        4.0973563704       -0.1940552238
 H        -6.4317968869        1.9065937717        3.1159949553
 H        -5.9935582471        3.4503773161        2.3982889177
 H        -2.9235448689        2.1773566474       -0.6915908731
 H        -1.8687017524        3.0060263205        0.4583597934
 H        -3.9476679156        3.9732427351        1.6947583108
 H        -2.4185147736        3.4976914205        2.6568013636
 H        -3.8298045734        3.7528429614        3.5055605093
 H        -3.7974850511       -0.0135018477        3.2147779034
 H        -3.1321520786        1.2744798584        4.3176416222
 H        -4.8769434572        1.0209547419        3.9676484222
 H        -0.3774098509        1.7110251662       -1.3331173293
 H        -0.3989692589        0.8290179907        0.1558963829
 H        -0.1461575753       -4.2227604301       -0.4038570155
 H         0.9344263170       -3.4794237525       -1.4849529950
 H        -2.4423220625       -1.4783353343       -3.3512549677
 H        -1.2917269184       -2.8420381759       -3.3503279825
 H        -0.7565078616       -1.4846655224       -4.3039984531
 H         1.3161822177       -1.4931187256       -2.9704491326
 H         1.0567958499        0.1639238305       -2.9032177908
 H         1.3646053086       -0.4786786191       -1.5462244518
 H         0.3276777212       -2.7596890742        1.5252015720
 H         1.5188014094       -1.8060519435        0.5662327902
 H         4.6618725906       -2.0857969530        3.3054993022
 H         3.8173563363       -1.5780639059        1.7557831575
 H         0.5486169173       -5.1075314853        2.5666103941
 H         0.6103397999       -3.6291337801        3.5062311083
 H         1.2963496054       -4.9918719672        4.3030784396
 H         4.5792750899       -4.7897404470        2.3187201361
 H         3.8943871942       -4.7952088333        3.9422108197
 H         3.3631817170       -5.9559106320        2.7486283025
 H         3.4667434842       -0.3840901724        4.5342999390
 H         4.3595248374        0.3481511514        3.3158010770
 H         3.1401603544        4.3789485102        3.1102097126
 H         3.7106457390        2.6976363925        2.9393620993
 H        -0.4550336249        1.0199597107        2.5737582583
 H        -0.6306107108        1.4996620742        4.3956559289
 H         0.0606084661       -0.1644064861        3.9326907332
 H         0.8800752479        1.6792242769        6.0364848998
 H         2.4886644156        0.8694313298        5.5801492524
 H         2.2220162107        2.5784891330        5.3690877605
 H         2.7453718192        4.7404192310        0.8768910851
 H         2.3915945288        2.9959106180        0.5639752064
 H         6.5528901054        2.4256225090       -2.9807312704
 H         6.4363415996        1.7189345223       -1.4093794850
 H         4.5236650123        6.1630413696        0.0695712390
 H         3.3394287061        5.3219385683       -1.0606996290
 H         4.7665600748        6.1667533120       -1.7616006795
 H         7.1030192844        4.1626701017       -1.6071856452
 H         6.9297781949        5.1666089347       -0.1294529776
 H         7.1049562137        3.3580408078       -0.0566386950
 H         5.1384216762       -0.0393742324       -2.0938133368
 H         4.2266892291        0.9509191809       -3.2890625194
 H         9.4435114691       -2.7114306450       -2.7672442286
 H         8.4164754505       -2.9187323957       -1.3346761728
 H         7.9530468738       -3.6740909728       -2.7247069444
 H         4.9533159176       -1.8460584246       -2.5946049094
 H         5.5880260905       -3.2420005229       -3.1375808016
 H         4.6694339351       -2.3100604367       -4.3985793965
 H         6.6669104853       -2.0640193327       -6.0196694733
 H         7.6925037045       -0.7728736535       -5.8037622166
 H         8.0866131237       -2.4422020343       -5.0836437977
 Na       -3.9199494241       -1.0653474403       -0.0282594805
