155

 C        -7.3427412964       -4.4246054450       -0.0269221334
 C        -6.2977408530       -3.3549299482       -0.4983249225
 C        -6.2525648876       -3.0023328054       -2.0315298605
 C        -6.2761736432       -1.4036485082       -2.1377256769
 C        -7.4808117594       -0.7135460378       -2.8010772541
 C        -4.8423284241       -3.2903778587       -2.5640878015
 C        -7.3317033905       -3.7271608787       -2.8429656557
 O        -5.3747069146       -3.0039687992        0.2508608794
 O        -5.4691571114       -0.6880514595       -1.5688266256
 C        -7.4904817826        0.8670162030       -2.8213494970
 C        -8.5583401136        1.3878167694       -1.8235489529
 C        -8.6248647921        2.8952339394       -1.2587158925
 C        -7.4462418834        2.9138806738       -0.2372774843
 C        -7.6299227988        2.2115298662        1.1550144968
 O        -9.3518372294        0.5859639659       -1.2667582039
 O        -6.3720766561        3.3995214011       -0.3873277899
 C        -8.3334789818        3.8999289437       -2.3866923199
 C        -9.9823026984        3.1864824012       -0.6742512614
 C        -6.5241861864        2.4315413298        2.0645260067
 C        -5.2961875447        1.5773932009        1.6637677620
 C        -3.8853617009        1.7494693207        2.4101807068
 C        -2.7091153899        1.1182581266        1.3721866301
 C        -2.0994292647        1.8849862600        0.1902746366
 C        -3.6100762621        3.2199453056        2.8022454369
 C        -3.8666939155        0.9272339644        3.7240936598
 O        -5.4041778105        0.7476063644        0.7472605874
 O        -2.2895517501       -0.0425960134        1.6667035936
 C        -1.0541359210        1.0344422781       -0.5352531972
 C        -1.5564433702        0.0813219761       -1.6412333260
 C        -0.6976920550       -1.1561076336       -1.9959436943
 C        -0.8548569431       -2.1887641810       -0.9150484314
 C         0.2863258217       -3.2153664269       -0.5770914757
 O        -2.6280107607        0.3309994191       -2.2124462480
 O        -1.9248642171       -2.2953857045       -0.3236677271
 C        -1.2983583111       -1.9351176482       -3.2518817164
 C         0.8125569152       -0.7630092357       -2.1696916467
 C         1.3021431085       -2.7757885889        0.4214521826
 C         2.4006410193       -3.7961711344        1.0177979382
 C         2.4393400897       -3.9015469266        2.5371496796
 C         2.5534165736       -2.4474839234        3.1597701887
 C         3.7159638750       -1.5199323611        2.8598946097
 C         1.1677779165       -4.6141556423        2.8654270411
 C         3.6185528034       -4.7591741118        3.0904774663
 O         3.1730156836       -4.3947534998        0.3500249441
 O         1.6104053765       -1.9270032540        3.8052656126
 C         3.6570595254       -0.1127541444        3.5203842862
 C         2.4734653262        0.6139763672        2.8288375861
 C         1.5443302568        1.4855904497        3.7100473264
 C         1.5510854660        2.8730224444        2.9484404025
 C         2.9681116157        3.4759682415        2.7154422260
 O         2.2583185720        0.3471781245        1.6523694251
 O         0.5467998981        3.4503286766        2.6600290222
 C         0.0301928940        0.9739591384        3.4931255526
 C         1.8438206728        1.7639757128        5.2168011853
 C         3.0722149211        3.9578937358        1.2696911858
 C         4.4500960657        3.4772072425        0.6502111180
 C         5.0337083392        4.2492981805       -0.6791640355
 C         4.7903716805        3.0900078273       -1.7427675224
 C         5.7370138776        1.9146655238       -1.8353444277
 C         4.4568944290        5.5286813327       -1.1953919287
 C         6.5370350120        4.5479478079       -0.3872178973
 O         5.0766639523        2.5742284867        1.0723854020
 O         3.8410520357        3.3028049386       -2.5058586545
 C         5.2300099313        0.7569485194       -2.7351639961
 C         6.1249793507        0.1959342865       -3.8361520881
 C         6.7425856809       -1.2970198372       -3.6942254411
 C         7.6935177683       -1.3536526792       -2.5194182334
 C         8.2258315201       -2.7855762719       -2.2653897403
 O         6.2071381541        0.8250426807       -4.8995126044
 O         7.9617647441       -0.4409463246       -1.7728828189
 C         5.5390315492       -2.3117294866       -3.6299879803
 C         7.4961950526       -1.6668628492       -5.0482873381
 H        -7.4433099375       -4.4314535574        1.0378309430
 H        -8.2308815235       -4.1049163518       -0.4530343756
 H        -7.0702009128       -5.4596560152       -0.2691836229
 H        -7.5819217686       -1.0539420664       -3.8785886347
 H        -8.3935100854       -1.0692851529       -2.3545385206
 H        -4.6966448546       -2.9304868816       -3.5969785501
 H        -4.6079033226       -4.2921898550       -2.5517438457
 H        -4.0978573177       -2.8231828448       -1.8495348005
 H        -8.2498168641       -3.6473542243       -2.3885634715
 H        -7.5046607259       -3.5042974294       -3.9093259482
 H        -7.0986654540       -4.7760078655       -2.9103241232
 H        -6.5368056335        1.1790288125       -2.5052465865
 H        -7.5771775738        1.3137818122       -3.8245968253
 H        -8.4583972905        2.6502636452        1.6911952824
 H        -7.8530361329        1.1433097234        0.9828774874
 H        -7.2493979350        3.9273268052       -2.6745982534
 H        -8.5229722282        4.9293893474       -1.9986247766
 H        -9.0159464801        3.6871489011       -3.3396458004
 H       -10.7372044507        3.1655196697       -1.5066253163
 H       -10.1934974676        2.3903063517       -0.0047596792
 H       -10.1790893228        4.1510256998       -0.2373154958
 H        -6.7794765645        2.2158723204        3.1105050199
 H        -6.3174746253        3.5453909244        1.9800362376
 H        -2.9175831166        2.1351379470       -0.5080280567
 H        -1.7250336009        2.8046323612        0.5748229600
 H        -3.6945383721        3.8412969464        1.9077928956
 H        -2.8019700590        3.3076686771        3.4858835267
 H        -4.3904418641        3.4688328573        3.5130030336
 H        -3.4009046981       -0.0401996946        3.7548054590
 H        -3.3522523423        1.4812849530        4.4929601762
 H        -4.9205723312        0.7321020731        3.9849527155
 H        -0.4316278568        1.6174574620       -1.2570913018
 H        -0.3253409055        0.5919888312        0.1973923210
 H        -0.2143560911       -4.1346914010       -0.2144095182
 H         0.6868143369       -3.5347405205       -1.5585632897
 H        -2.3134842344       -1.7834402452       -3.3876175624
 H        -1.1493206737       -2.9672086930       -3.0413881583
 H        -0.7303948523       -1.7941234762       -4.1010205822
 H         1.3818002310       -1.6390096566       -2.3717156056
 H         1.2221989186       -0.1289939183       -2.9316667792
 H         1.3036059853       -0.1632070836       -1.3446401041
 H         0.7483807196       -2.3920019958        1.2800416034
 H         1.9225628272       -1.8881720226        0.0290893652
 H         4.5423542005       -2.0590570764        3.2712056907
 H         3.8649933719       -1.3462764531        1.7935070587
 H         1.3006868272       -5.6410138316        2.4576601037
 H         0.2793811563       -4.1323381130        2.3628854288
 H         0.9323936367       -4.5287419907        3.8351805286
 H         4.5179276089       -4.2960717104        2.8294132791
 H         3.6964878236       -4.7415469278        4.2060552087
 H         3.6423289553       -5.7881720446        2.6978076513
 H         3.5720277394       -0.1446728779        4.6505470863
 H         4.6861753194        0.3526559125        3.2421882040
 H         3.2623339639        4.2581487267        3.4900971034
 H         3.6446813595        2.6524945107        2.7573449708
 H         0.0564562028        0.7350049386        2.4193934802
 H        -0.6539696843        1.7836347857        3.6838938357
 H        -0.1541305207        0.0682990894        4.0299969082
 H         1.0700935703        2.4337204887        5.4852397893
 H         1.6704415666        0.8991908725        5.7997445872
 H         2.8320145235        2.2641615316        5.3732813146
 H         2.9068149792        5.0040479917        1.1347410849
 H         2.3092491018        3.4737072974        0.6929886032
 H         6.7049912516        2.2175795534       -2.1571203434
 H         5.9805610260        1.5754306929       -0.8051375772
 H         4.4691485526        6.3775451013       -0.5746253311
 H         3.4476709369        5.3586666279       -1.6470350579
 H         5.0520957032        5.7355544353       -2.0740317266
 H         7.0461527627        4.7173311090       -1.3518291356
 H         6.5348637930        5.5055734665        0.1738889622
 H         7.0317414735        3.6972624111        0.0848330733
 H         5.0964925964       -0.1524118815       -2.1058957687
 H         4.2864253793        1.0616649947       -3.1448517280
 H         9.2660349873       -2.8718733471       -2.5189131342
 H         8.0766078560       -3.1263292734       -1.2230761405
 H         7.7446204340       -3.5843353268       -2.8777753049
 H         5.4176929481       -2.8128500009       -2.6415651813
 H         5.8409209192       -3.2367238089       -4.1653902305
 H         4.7139013716       -1.9633395674       -4.1106632167
 H         6.9931328244       -2.4945429722       -5.6101215936
 H         7.6259938909       -0.9363587713       -5.7615889735
 H         8.3884279082       -2.2029788330       -4.8099172833
 Na       -3.9281736145       -1.1189762291        0.0999088858
