155

 C        -7.7096185417       -4.1572490645       -1.4980629456
 C        -6.5099503748       -3.2152101535       -1.9040479758
 C        -6.2323166465       -2.8836257342       -3.3509987390
 C        -6.2582548592       -1.3361068849       -3.4734244595
 C        -7.5223487879       -0.7053029400       -4.2952695506
 C        -4.8646387890       -3.3755173644       -3.7766100858
 C        -7.2764525105       -3.5014878323       -4.3077529041
 O        -5.7789350717       -2.8015084973       -1.0069194395
 O        -5.3237172816       -0.6265425526       -3.2176240859
 C        -7.8753470504        0.6668390530       -3.6862559727
 C        -8.3218982057        0.5030968271       -2.2201398469
 C        -8.9372325335        1.6199036392       -1.4595056848
 C        -7.8665031120        2.0697356359       -0.2646124576
 C        -7.8281079478        0.9962081344        0.8186823548
 O        -7.9675472688       -0.6068783530       -1.6597784879
 O        -7.1196806835        3.0300820233       -0.2245352591
 C        -9.1650889622        2.9354942464       -2.3885451558
 C       -10.2181285135        1.0802035137       -0.8836235088
 C        -6.6261976859        1.2253667666        1.7650406658
 C        -5.2833600746        0.7689209881        1.2336978624
 C        -4.1363367884        0.6770571012        2.2351306117
 C        -2.8831739825        0.5952663382        1.2000683089
 C        -2.4938524803        1.9227102789        0.5700058118
 C        -4.0398975583        1.7697727209        3.2292973266
 C        -4.2525131786       -0.6622645083        3.0385797053
 O        -5.1282305745        0.4407666346        0.0743872758
 O        -2.4159190273       -0.4723734898        0.8368106949
 C        -1.2610563307        1.6458162433       -0.3145409891
 C        -1.5816904366        0.5308491882       -1.3461238226
 C        -0.5734512306       -0.7590983358       -1.7141476751
 C        -1.1556214428       -2.0902735681       -1.3016474768
 C        -0.2000706410       -3.1272825618       -0.7142960236
 O        -2.6171367612        0.6310018851       -2.0300898776
 O        -2.2820645978       -2.4515000233       -1.5678781513
 C        -0.5202410752       -0.7671349737       -3.2849883775
 C         0.8707298595       -0.4821593066       -1.1469679792
 C         0.3723339136       -3.1102192899        0.6715853189
 C         1.8451544931       -3.1074749314        0.8689748408
 C         2.4558861126       -3.4211132800        2.2598693030
 C         3.1629382126       -2.0678623129        2.7374428771
 C         3.2741915973       -0.9069537600        1.7120390595
 C         1.5849414527       -4.0552525695        3.4345915182
 C         3.6123594124       -4.4327318824        1.9180098517
 O         2.6453255526       -2.9089234360       -0.0070537765
 O         3.5382810033       -2.0717333135        3.8764384631
 C         3.6769527212        0.4199102218        2.2316835986
 C         2.5087402571        1.2096791778        2.8441789678
 C         2.6793664855        2.2454201910        4.0195804267
 C         1.9370542727        3.5521823900        3.6418069687
 C         2.5179679641        4.7350580286        2.9283852856
 O         1.3401049331        0.8613704197        2.5345937987
 O         0.7143309036        3.4091656084        3.6716279539
 C         1.7491789170        1.6469089227        5.1420076082
 C         4.1036223249        2.4822535000        4.4997096674
 C         2.6008499695        4.3643762420        1.4144263667
 C         4.0829960523        4.2802347342        0.8621949342
 C         4.4036571980        4.2255952060       -0.6155786714
 C         4.2833854541        2.6949902267       -0.9410636906
 C         5.4955778949        1.7624701547       -0.8451029819
 C         3.3664888190        4.9268023775       -1.5039901737
 C         5.8041767464        4.9263157915       -0.8698849678
 O         4.9478719094        4.2323154688        1.6549050245
 O         3.1889608837        2.2047844491       -1.0760228886
 C         5.7073369213        0.9713126665       -2.1357426662
 C         7.1087420305        0.4015594025       -2.3160113082
 C         7.5123587674       -1.2214103114       -2.0906595083
 C         7.2689021160       -1.4484850929       -0.6039369142
 C         8.5425676140       -1.8418440476        0.2117583505
 O         7.9912205821        1.1661229221       -2.3714401350
 O         6.1894071357       -1.3313727893       -0.0624411020
 C         6.4525861300       -2.0284101333       -2.8556424730
 C         9.0446945190       -1.3424716857       -2.5114825521
 H        -7.6642008199       -4.2766278944       -0.3781659239
 H        -8.6460416360       -3.6394334090       -1.8070898063
 H        -7.5610628094       -5.2261901597       -1.8870371338
 H        -7.0232613251       -0.5983368857       -5.2472853005
 H        -8.3601880941       -1.3632864655       -4.3691979495
 H        -4.9152342203       -3.5120917101       -4.8387294005
 H        -4.6469068309       -4.3632832889       -3.3884038536
 H        -3.9535979964       -2.7066844655       -3.5974564940
 H        -8.2690198488       -3.3545755327       -3.8592958786
 H        -7.1344776765       -2.9179034300       -5.3107020176
 H        -7.0481023151       -4.5529853791       -4.6670286583
 H        -7.0142729535        1.2857123801       -3.5658802624
 H        -8.6312081229        1.2341360074       -4.2859275388
 H        -8.7449640386        0.8847385351        1.3547942880
 H        -7.7252943705        0.0110326657        0.2843234449
 H        -8.1428390818        3.1260617139       -2.8362187578
 H        -9.5519180630        3.7913623405       -1.6858992984
 H        -9.9322508741        2.8312688711       -3.1761403019
 H       -11.0629150234        0.6845571952       -1.5660829222
 H       -10.1183543946        0.1552132227       -0.2963032969
 H       -10.5527507706        1.8041522762       -0.1465062134
 H        -6.9281609152        0.8183194507        2.7055129058
 H        -6.4979370150        2.3404759664        1.9779294862
 H        -3.3836561491        2.2833092799        0.0592309534
 H        -2.2385767633        2.6770558692        1.2894076883
 H        -3.9948194813        2.7976499811        2.8798108011
 H        -3.1003323196        1.6471318839        3.8586453605
 H        -4.8739342538        1.9228950064        3.9157915153
 H        -3.9231822556       -1.5403270026        2.5611723600
 H        -3.6660787158       -0.7420321226        3.9459807199
 H        -5.2991738610       -0.6471804012        3.4098750556
 H        -0.9150400738        2.6000373087       -0.7877547787
 H        -0.4186913156        1.3535524249        0.3906402520
 H        -0.7268257431       -4.0954514746       -0.7948624458
 H         0.6197686186       -3.2105855724       -1.4271210923
 H        -0.2774956144       -1.8720554477       -3.4667830468
 H         0.2560198277       -0.1150181657       -3.7704340180
 H        -1.5665437988       -0.5191804310       -3.6321303269
 H         1.5748168183       -1.3075666102       -1.3955819104
 H         1.2193061264        0.3563351655       -1.7523530456
 H         0.8205483925       -0.2214155967       -0.0656222954
 H        -0.1361788077       -3.9455159924        1.2816564870
 H        -0.0534314338       -2.2879756617        1.2660621466
 H         3.8826719739       -1.2216293689        0.9026675913
 H         2.2351924288       -0.7557174779        1.3924758465
 H         1.1966396601       -5.0393791464        3.1379235272
 H         0.6310149689       -3.4372577992        3.5642421867
 H         2.1270650570       -4.2627795149        4.3127219018
 H         4.3023977160       -3.9897947604        1.2420270963
 H         4.0094476185       -4.9120722355        2.8943186444
 H         3.1790269266       -5.2506555898        1.3935348956
 H         4.4214639734        0.4545284340        3.1067082963
 H         4.2525926264        0.9560441583        1.4130032198
 H         1.9161887694        5.6255955224        3.0840178035
 H         3.5558058122        4.9307012823        3.2673843912
 H         0.6995066757        1.6738871848        4.8053658685
 H         1.9001331157        2.2003529728        6.1682031875
 H         2.1719998279        0.5706901013        5.3624744427
 H         4.2579160004        3.4483027820        5.0065325306
 H         4.4275908690        1.6927159819        5.1644913442
 H         4.7546032892        2.4036346578        3.6057227667
 H         1.9891908841        5.0726036876        0.8849710229
 H         2.1825941983        3.4176121814        1.1781451717
 H         6.4798634806        2.1285131733       -0.5462470756
 H         5.1512667306        1.0805748673       -0.1080367188
 H         3.4554477886        6.0747603986       -1.2860643217
 H         2.4198046279        4.6372750111       -1.1486670309
 H         3.3847861523        4.8146511278       -2.6151033902
 H         6.2343364934        4.7037119068       -1.8072342584
 H         5.9022754531        5.9847427952       -0.6462988065
 H         6.4568917885        4.5843597260       -0.0800448668
 H         4.8486180715        0.3511755160       -2.3026534752
 H         5.6539142469        1.6944268590       -2.9972506055
 H         8.7443114488       -2.8973438978        0.0418953312
 H         9.4814786102       -1.3336947416        0.0034280444
 H         8.2906490314       -1.7402227440        1.2926345555
 H         5.4967541082       -2.0181715495       -2.3319420094
 H         6.9699100939       -3.0135150088       -2.9267384785
 H         6.2970717079       -1.6567454727       -3.8238713759
 H         9.1258969026       -1.7273137020       -3.4978896109
 H         9.5746220963       -0.4071935812       -2.2190044971
 H         9.5206488380       -2.0177230157       -1.7652658286
 Na       -4.2566735000       -1.1141645894       -1.3866730491
