155

 C        -7.1095707319       -4.3090672609       -2.9263983418
 C        -6.0125157687       -3.3089481797       -3.0269412301
 C        -5.7008315326       -2.5249610166       -4.4022782734
 C        -5.8268401622       -1.0002494524       -3.9404102489
 C        -6.8586827572       -0.0995230973       -4.6533357876
 C        -4.2799041063       -2.8354831603       -4.9429281404
 C        -6.6967353223       -3.0546757615       -5.4864934479
 O        -5.3591877083       -3.0291693019       -2.0432439910
 O        -5.0414321912       -0.5138800047       -3.1040409803
 C        -7.6103483655        0.7038910015       -3.5528079373
 C        -8.4766268153       -0.1852020315       -2.6670083685
 C        -9.4746832830        0.5681076093       -1.6071755805
 C        -8.4428424965        1.0318942593       -0.5470957388
 C        -8.4219457872        0.4436207096        0.8724294221
 O        -8.3262569040       -1.4477066018       -2.5965733012
 O        -7.7174723271        1.9372883365       -0.9226337608
 C       -10.1933160129        1.7582780172       -2.3110691455
 C       -10.4569700960       -0.4359268097       -1.0230179356
 C        -7.1817319786        0.8839358402        1.5367956270
 C        -5.9782662428       -0.1293792252        1.0992634063
 C        -4.7312373255       -0.2601187931        2.1938342468
 C        -3.4471835015       -0.2218434341        1.2943370575
 C        -2.5573646071        1.0475177465        1.1112827077
 C        -4.7733870893        0.8157095764        3.2511031838
 C        -4.9246657865       -1.7533137640        2.8257270482
 O        -6.1520054643       -0.7531795725        0.0807896173
 O        -3.1673619787       -1.3249982000        0.8171226096
 C        -1.1978482516        0.8540302972        0.2242401657
 C        -1.5651278634        0.5068101122       -1.2245479553
 C        -0.3432786507        0.1115571334       -2.2050486620
 C        -0.4059653842       -1.4899584324       -2.4635420336
 C         0.7810431242       -2.4097295729       -2.1741699249
 O        -2.7223026217        0.4118346728       -1.5916326964
 O        -1.4952186215       -1.9292758219       -2.8389464499
 C        -0.6824473141        0.6935098930       -3.6110494055
 C         1.0065783832        0.6388385107       -1.7703334393
 C         0.4978482033       -3.2635391650       -0.9094057189
 C         1.4817595431       -2.6021800838        0.1694282875
 C         1.6237495099       -3.2226832037        1.6155617488
 C         1.9673335721       -1.9019225881        2.5363025823
 C         3.3892994752       -1.3798696417        2.8140354288
 C         0.3971333100       -3.8460812628        2.2488617557
 C         2.6637438798       -4.3455451845        1.6639496014
 O         2.1917046640       -1.6195755937        0.0236069633
 O         1.0130885056       -1.2694133586        2.8048767547
 C         3.3976131791       -0.3234922712        3.9202063335
 C         3.0939898210        1.1088780173        3.3424864841
 C         3.1752044950        2.3085164901        4.3019461215
 C         2.3918526648        3.6166713373        3.7179555117
 C         2.9348097239        4.6908636655        2.7597473116
 O         2.9896491873        1.3048314283        2.1989032746
 O         1.2073717598        3.5890805362        4.0606694401
 C         2.7054575035        1.8488272144        5.6803041474
 C         4.6921571111        2.6344899598        4.3851769159
 C         2.7170363501        4.3799112507        1.3084480051
 C         3.8570640247        4.7430907487        0.3110441642
 C         3.7242401591        4.2589825851       -1.1488419042
 C         4.4159846325        2.7624925227       -1.0475223263
 C         5.8841833441        2.5780805433       -0.5066115947
 C         2.2939509386        4.0478986116       -1.6117939816
 C         4.6491452747        5.2229601571       -1.9553211816
 O         4.8082095148        5.3481840113        0.6708040461
 O         3.7654203347        1.8416629620       -1.5121217346
 C         6.1083958506        1.3257585055        0.2980767471
 C         7.5867067567        1.1593981368        0.4866026589
 C         8.3348862066       -0.0946206830        0.1533893407
 C         7.7889428497       -1.0748966914        1.2193968035
 C         8.6973402212       -2.3302750337        1.4828891202
 O         8.1976033967        2.0158482103        1.0478079661
 O         6.7235321357       -0.9807432266        1.7496083090
 C         7.9320122934       -0.6450234499       -1.3026072111
 C         9.8199182403        0.1116269506        0.2017745380
 H        -7.3352738161       -4.7914454230       -1.8982842492
 H        -8.0514534266       -3.6887962301       -3.1939451041
 H        -6.9074030439       -5.1381750510       -3.5848593187
 H        -6.4401783457        0.6224449139       -5.3698701775
 H        -7.6216368954       -0.6592681766       -5.2507410002
 H        -4.0141149255       -2.1833496272       -5.8423710074
 H        -4.2128931045       -3.8549744128       -5.3153311455
 H        -3.6144039908       -2.7107126575       -4.1474215608
 H        -7.1893240507       -2.2777315925       -5.9237871404
 H        -6.0700608596       -3.2534051847       -6.3438022411
 H        -7.3191632074       -3.8727017160       -5.1825921938
 H        -6.9871558988        1.1763150041       -2.8943490111
 H        -8.3644234974        1.4569576638       -3.9733137682
 H        -9.3336398742        0.8678672559        1.3216395454
 H        -8.5202450782       -0.6897118625        0.9155717653
 H        -9.5568659677        2.5875504075       -2.5071178075
 H       -11.0503415048        2.0997047203       -1.7246356295
 H       -10.6452361569        1.4603045235       -3.2666141321
 H       -11.4054623719       -0.6112133183       -1.5616856183
 H        -9.8106314033       -1.3472644877       -1.0432575764
 H       -10.7419088222       -0.0169103780       -0.0204364935
 H        -7.2423079371        0.7737377693        2.6033707755
 H        -6.8974882634        1.9626065896        1.2972525490
 H        -3.1445614905        1.9591546865        0.7466753459
 H        -2.1882161903        1.3883816260        2.1021634784
 H        -4.7011097928        1.7454648756        2.6106602653
 H        -3.8167135373        0.7495232687        3.6793081333
 H        -5.7018181319        0.8163030168        3.8457252286
 H        -4.5448850966       -2.5875814524        2.1529389711
 H        -4.5072927502       -1.6343477702        3.7881220558
 H        -5.9802264644       -2.0235754399        2.8679357321
 H        -0.7392619808        1.8035340837        0.1246568026
 H        -0.4705282865        0.1695861665        0.6617056701
 H         0.7748402704       -3.2115456432       -3.0082606855
 H         1.7280720553       -1.9079956162       -2.2151888179
 H         0.1926354066        0.6109362736       -4.2710325492
 H        -0.8280417400        1.8572075193       -3.6266860788
 H        -1.5249149225        0.3512295821       -4.2463501532
 H         1.8671810089        0.4426706729       -2.4137805414
 H         1.0363999934        1.7381110720       -1.7097353661
 H         1.3492188553        0.2320848426       -0.7948381447
 H         0.8133948069       -4.3104724009       -1.1305598979
 H        -0.5170082766       -3.4206789082       -0.5559260297
 H         4.0720702642       -2.2553730843        3.0267096953
 H         3.7936047533       -0.9095626326        1.8553831863
 H         0.0234760530       -4.7910378173        1.7515411556
 H        -0.4049665838       -3.1580488506        2.1899467277
 H         0.6422925030       -4.1249491234        3.2187735085
 H         3.6951274151       -4.0619032795        1.3382382370
 H         2.7856532499       -4.7025331764        2.6387805955
 H         2.2890500093       -5.2224815909        1.0598519468
 H         2.7003236161       -0.5937581121        4.7518676968
 H         4.3855726421       -0.2859462738        4.4206016774
 H         2.4805460498        5.6827612327        2.9237711018
 H         3.9702704201        4.8415385203        2.9332136175
 H         1.6975572358        1.8433193480        5.7706028101
 H         3.0759680814        2.4802613862        6.4134224863
 H         2.9677981155        0.8200542235        5.8218915449
 H         4.8394959892        3.4665652024        3.7113061865
 H         5.0192918824        2.9180863599        5.3316636452
 H         5.3610651103        1.8962691719        3.8939012176
 H         1.8684960895        4.9461666996        0.9410955077
 H         2.3895285716        3.3853296981        1.0508608890
 H         6.5993285587        2.4601714414       -1.3554439309
 H         6.0710032639        3.4962666654        0.0776736650
 H         1.6925324885        4.9025995103       -1.4952981151
 H         1.8091168840        3.2553129725       -0.9062135199
 H         2.2243687787        3.7193821795       -2.6350715366
 H         5.1422621416        4.5841710623       -2.6335829133
 H         3.9745299452        6.0070852038       -2.4176749202
 H         5.4654596366        5.5777191695       -1.3108773991
 H         5.6974391161        1.2827526845        1.2658668153
 H         5.5737060352        0.4368097005       -0.1875011183
 H         8.8386501578       -2.9478322719        0.6121790231
 H         9.7618930663       -2.1770963996        1.7504623575
 H         8.1288261042       -2.9323348259        2.1769141763
 H         6.9612939714       -1.1318282149       -1.3627775624
 H         8.6157827920       -1.5173599009       -1.6852853515
 H         8.0909140432        0.0680092984       -2.0762392994
 H        10.3695658057       -0.4877854481       -0.5578323551
 H        10.0484059862        1.1291007867       -0.0305908388
 H        10.3576648471       -0.2063047701        1.0878328662
 Na       -3.7382108039       -1.7238384863       -1.5243177216
