155

 C         4.1371421365       -3.1230000229       -5.9453158168
 C         3.1492400967       -2.2647739516       -5.0598290343
 C         2.7145241819       -0.7892057996       -5.4854479912
 C         1.1268926573       -0.6908875679       -5.7144778366
 C         0.5029551519       -0.8407803380       -7.1062796058
 C         3.1235112973        0.1331785222       -4.1943290581
 C         3.5347881040       -0.2123249082       -6.6679524779
 O         2.8107241971       -2.8393113054       -4.0187139077
 O         0.4509299064       -0.4447388921       -4.7258404871
 C        -0.6903286131       -1.7664690200       -6.9441000950
 C        -0.2730356365       -3.2571967891       -7.0880837924
 C        -1.3044329028       -4.4454738783       -7.2450670361
 C        -2.0895911347       -4.5498098636       -5.9233052069
 C        -2.0784933741       -5.8239967867       -5.0247680458
 O         0.8773449600       -3.5077854263       -7.0778660789
 O        -2.8516199138       -3.6024518575       -5.6285923420
 C        -2.3148144281       -4.1210255723       -8.4086193133
 C        -0.4612551062       -5.6742970879       -7.6159667944
 C        -2.2847277802       -5.4325500931       -3.5879540549
 C        -0.9929511999       -4.8901215304       -2.9035695623
 C        -0.5598117648       -5.5059663329       -1.4993229543
 C        -0.2237886504       -4.2606600182       -0.6124653504
 C        -1.2316395388       -3.8460593686        0.5325806272
 C        -1.5724873966       -6.3896090322       -0.7556632163
 C         0.8183430095       -6.2597617628       -1.7174538770
 O        -0.2786466521       -4.0606879666       -3.5172354569
 O         0.8461164971       -3.7145166607       -0.7216971296
 C        -1.0991928036       -2.4141695778        0.8576987675
 C        -1.2914415461       -1.5697592616       -0.4571442044
 C        -1.1194135318       -0.0395593074       -0.4771839558
 C         0.4915912136        0.2853276706       -0.2945311256
 C         1.1065192229        1.3245756733        0.5633191158
 O        -1.5052964469       -2.2608623333       -1.4324103637
 O         1.2208803825       -0.4846020117       -0.9242110953
 C        -1.4610278142        0.6148686649       -1.8607025206
 C        -2.0680154491        0.5936742566        0.6333177662
 C         2.5898103050        1.7236502630        0.0196973230
 C         2.5036388341        2.8424427610       -0.9461978184
 C         3.3396625737        4.1425167712       -0.6151190654
 C         2.8582540266        4.7324749623        0.7667444963
 C         3.7169774930        5.6534287828        1.6013387188
 C         4.8396880083        3.6412310396       -0.6850196234
 C         2.9396400813        5.1446031555       -1.7145074669
 O         1.7758737909        2.7925364916       -1.9370412543
 O         1.6406762363        4.5568751104        1.0069264252
 C         3.2862183147        5.4024452613        3.0371627609
 C         3.5982308506        3.9541961658        3.5241996182
 C         3.2062423262        3.5502228691        4.9685011632
 C         1.6411682139        3.3464983385        5.0180699388
 C         0.9035528146        2.2726182838        4.1827135881
 O         3.9892424471        3.1752241378        2.7014320725
 O         0.9597877435        4.0414606640        5.8109954939
 C         3.8603310331        2.1497190673        5.1028766766
 C         3.5942270698        4.4921295659        6.0612122149
 C        -0.0229051726        1.6144873324        5.1666433579
 C        -1.0601649753        0.6265781143        4.6326600382
 C        -2.3637906696        0.4037969507        5.5538699522
 C        -3.1901782930        1.7514632676        5.5563706531
 C        -4.8047508976        1.4893247523        5.3601005762
 C        -3.1780145466       -0.8306050337        5.1456222356
 C        -1.7941105652        0.0937508313        7.0349609745
 O        -0.9881917485       -0.0560035118        3.6281383718
 O        -2.5854867456        2.8032159840        5.9080872917
 C        -5.5169227306        2.8599341380        5.1086110458
 C        -6.7206419540        2.7830676179        4.2968086151
 C        -7.5630040866        4.1061889951        3.9627898829
 C        -8.9478713576        3.8693613038        4.7425317563
 C       -10.1761140762        3.3667845316        4.0537026313
 O        -7.1288198379        1.7300423128        3.8386416299
 O        -8.9760235329        3.9773854181        5.9388772457
 C        -6.8929872019        5.4066194271        4.3651067862
 C        -7.6936236498        4.0653697716        2.4288019335
 H         3.7012584920       -4.0795072597       -6.0687420389
 H         4.4246045053       -2.7003697525       -6.8778330796
 H         5.0791051869       -3.4774773519       -5.4878536982
 H         0.1099075910        0.1116418405       -7.4207592240
 H         1.1965993910       -1.3129343035       -7.8526799965
 H         2.6974633638        1.1344942633       -4.4204962471
 H         4.2390422696        0.1253266321       -4.0800915283
 H         2.6112939958       -0.0774704893       -3.2122959880
 H         3.6730747593       -1.0223597725       -7.4424863769
 H         3.0090923333        0.6738688463       -7.0111775282
 H         4.5327277944       -0.0598461635       -6.2472123313
 H        -1.1447164729       -1.4942232480       -6.0047446748
 H        -1.4426725993       -1.5670111800       -7.6702306548
 H        -2.8785595751       -6.4723143867       -5.3377851806
 H        -1.1641065632       -6.4231072100       -5.2107180202
 H        -1.9499893597       -3.8820216592       -9.3436734078
 H        -3.0832770033       -3.3812557098       -8.1738286008
 H        -2.8576282684       -5.0407993141       -8.5004411511
 H        -1.1562680947       -6.4986256226       -7.5080217392
 H        -0.1595516368       -5.6457644479       -8.6662594334
 H         0.4360808898       -5.9923601438       -7.0488499718
 H        -2.7150849345       -6.2977814835       -3.0494793016
 H        -3.1053282305       -4.7774042315       -3.4722039640
 H        -2.2582107906       -4.0087946753        0.1815562478
 H        -0.9419875801       -4.4308865396        1.4802352883
 H        -2.5410993761       -5.8085590272       -0.7006196769
 H        -1.2728532178       -6.6085495861        0.2862504051
 H        -1.6963726387       -7.3498581970       -1.2103838466
 H         1.3033139573       -6.5206239884       -0.7649914183
 H         0.6851919187       -7.0769470564       -2.3664546336
 H         1.4006286189       -5.5379383767       -2.2478857903
 H        -1.9165497619       -2.1187944885        1.5354777353
 H        -0.1172990479       -2.1501868808        1.3153524506
 H         0.4541569121        2.1071329231        0.9785058244
 H         1.2764916195        0.7790511203        1.4302663679
 H        -1.3433681816        1.7876466209       -1.9810046041
 H        -2.5165089868        0.2976649394       -1.9654110906
 H        -0.8438222985        0.0437803512       -2.5926073314
 H        -2.2830750069        1.6298955574        0.4551344912
 H        -3.0764931177        0.2257862360        0.5866553538
 H        -1.6870955725        0.3299974568        1.7279390535
 H         2.9725634680        0.8576862356       -0.4771658026
 H         3.1611874896        2.0747195711        0.8725354637
 H         4.7882171140        5.4006360387        1.5374077198
 H         3.4335785765        6.6679294421        1.2337058332
 H         5.6252240078        4.3001285201       -1.1537350743
 H         4.8973994551        2.6714243110       -1.2428568520
 H         5.1195942884        3.4898654899        0.3446003792
 H         3.2264043967        4.7503544136       -2.6940776476
 H         1.8773607085        5.4177294225       -1.6250277794
 H         3.5089372264        6.0132787008       -1.5371363737
 H         3.8421208477        6.0230865529        3.7082202275
 H         2.2410855402        5.7699142282        3.2112875527
 H         0.3212579674        2.8766632751        3.4481259130
 H         1.5993786339        1.6665263041        3.5158827485
 H         4.6943282220        2.2215623440        5.7357941168
 H         4.1097263941        1.6391602992        4.2178541799
 H         3.2871398734        1.4153672955        5.6315058620
 H         2.8119680412        5.1673727817        6.5047915734
 H         3.8797870785        3.9762572085        6.8980240444
 H         4.4219303945        5.2413691646        5.8827884998
 H        -0.5383292862        2.3048662546        5.7414875801
 H         0.5647763455        0.9890582001        5.8685190722
 H        -5.0746422411        0.9094422312        4.4880600447
 H        -5.0789575185        0.8334245436        6.1954562321
 H        -2.4519540426       -1.6060706056        4.9989753422
 H        -3.7036232364       -0.7463359759        4.2263332448
 H        -3.7217703072       -1.1249940589        5.9919871414
 H        -1.6625560352        1.1339353014        7.3807339535
 H        -2.5128698461       -0.3322024558        7.7077267049
 H        -0.7656799523       -0.3256250683        6.9445456655
 H        -5.7749669264        3.4903799375        5.9798053214
 H        -4.8318989864        3.4252081151        4.5742856089
 H       -10.1079221313        2.6603124216        3.2664940055
 H       -10.8197686297        2.9448315330        4.9022785518
 H       -10.7641895244        4.3014357247        3.6744891298
 H        -7.1154340029        5.7174264474        5.3446005264
 H        -7.0864658381        6.0309128293        3.4766001041
 H        -5.8015832824        5.3434496577        4.4666091324
 H        -8.4195317080        4.6716409633        1.9741539340
 H        -6.7386253187        4.4256444948        2.0549866315
 H        -7.7653730484        3.0809703711        1.9770361696
 Na        0.6397522974       -2.1110427119       -2.6983684024
