155

 C         4.3830104938       -2.0827598338       -5.3096467514
 C         3.1440263935       -1.5219632525       -4.6625139226
 C         2.3716034766       -0.3760744048       -5.2670358597
 C         0.8021203780       -0.7723656373       -5.5711458782
 C         0.3277279526       -0.8852994817       -7.0144457410
 C         2.4926789302        0.8042887095       -4.1866908277
 C         3.0154664060        0.1083759629       -6.5947335244
 O         2.8395169033       -1.9012400283       -3.5516661475
 O         0.0886187714       -0.8962802430       -4.5754213049
 C        -0.8157598163       -1.8592510672       -7.1699560621
 C        -0.2915051600       -3.3480795686       -7.1601491008
 C        -1.3276170966       -4.5132189722       -7.3685784661
 C        -1.5331625534       -5.2587608127       -5.9911228691
 C        -0.3150565413       -6.0313741160       -5.4935900650
 O         0.9241811588       -3.4799406899       -7.0662247959
 O        -2.5961699003       -5.3998096970       -5.4407460798
 C        -2.6412130841       -3.8325307928       -7.8118228599
 C        -0.7212001161       -5.4925664061       -8.4772648151
 C        -0.2946556567       -6.2183703454       -3.9186473683
 C        -0.2853412735       -4.9153421461       -3.0329944668
 C        -0.2746893085       -5.2688158189       -1.4713083569
 C        -0.3297233550       -3.9891611429       -0.6212406392
 C        -1.5741774286       -3.6256292359        0.1680449060
 C        -1.4450873847       -6.3153231153       -1.2174919306
 C         1.1170131269       -5.8380022193       -1.0580198659
 O        -0.3232361108       -3.8149278784       -3.5069839856
 O         0.5699142980       -3.1954798886       -0.7232802820
 C        -1.3952001013       -2.2029652564        0.6751176076
 C        -1.4076768808       -1.1753363675       -0.5059762167
 C        -0.8753053786        0.2412343751       -0.2322849614
 C         0.7473412293        0.3500390981       -0.1010872760
 C         1.2733638677        1.3448320998        0.9362823169
 O        -1.8505440733       -1.5422574201       -1.5991464616
 O         1.4293926068       -0.2639353087       -0.8595720983
 C        -1.4492846062        1.0871438960       -1.4251495869
 C        -1.6542634430        0.8533309595        1.0047925735
 C         2.6809857311        1.7206591555        0.9345239919
 C         3.1271897225        2.7156702595       -0.1365393301
 C         3.9273723054        3.9875978661        0.4077787486
 C         2.9417944201        4.7061130102        1.2549757710
 C         3.5626870154        5.7941313663        2.3232289780
 C         5.2512871520        3.6029516169        1.0769852499
 C         4.0975973229        5.1006637323       -0.7377126519
 O         2.6648095348        2.6303905421       -1.2836293138
 O         1.7179632399        4.4611683638        1.2175048767
 C         2.8468057763        5.6074285067        3.6688945347
 C         3.1778528977        4.2866592821        4.3199506260
 C         3.0616990445        3.8958342328        5.7705222019
 C         1.5534046688        3.3522231862        5.7679950327
 C         1.1490976411        2.0589665408        5.0249522250
 O         3.3312251631        3.3648895353        3.4639492516
 O         0.7387671586        4.0910606199        6.2769274476
 C         4.0556212292        2.7337076566        6.0309015357
 C         3.1878003983        5.1225962410        6.7005656660
 C        -0.4036555115        2.1148024789        4.9927823349
 C        -1.0673414588        0.9158540194        4.4958580432
 C        -2.5152479028        0.6424015779        4.9961206214
 C        -3.4876653808        1.7193473827        4.5720728468
 C        -4.7821309452        1.4195542022        3.8990446371
 C        -2.9596170038       -0.8493427997        4.5415551957
 C        -2.5382971062        0.7224602987        6.5849637048
 O        -0.5095548477        0.1369437532        3.7561737067
 O        -3.1802119362        2.9146229558        4.7400636910
 C        -5.7124883279        2.6381488605        3.7409307869
 C        -6.8024482774        2.2416543130        2.7405385892
 C        -8.1455342724        3.0667865035        2.7909057658
 C        -9.1202635980        2.3491476785        3.7211712971
 C        -9.4928473296        0.8381900445        3.4273432126
 O        -6.7405342821        1.2707808198        2.1157121992
 O        -9.5663373540        2.8829597706        4.6701104984
 C        -7.9586373838        4.5467040701        3.1672610720
 C        -8.9445878612        3.0331860318        1.3845524894
 H         4.2118921288       -2.5713514123       -6.2615123501
 H         5.2619110834       -1.4992897647       -5.3773473205
 H         4.5861193498       -2.9378693209       -4.5849497300
 H        -0.1341444844        0.1510012430       -7.1478696329
 H         1.1512246956       -0.9972000066       -7.6143472210
 H         2.4925118644        1.8493144111       -4.6331383770
 H         3.4650615191        0.6572238778       -3.7345067199
 H         1.5868323202        0.7305843856       -3.5095904457
 H         2.9057424872       -0.5899629180       -7.4771500606
 H         2.6036476551        1.0034857206       -6.9948383419
 H         4.1107257222        0.3288553188       -6.6430278968
 H        -1.5916206249       -1.9109773972       -6.3760935672
 H        -1.2678372251       -1.6297834141       -8.0826920141
 H        -0.4772446971       -7.0379875007       -5.9098272741
 H         0.6638522842       -5.7767251227       -5.9681592971
 H        -2.6284718644       -3.0916343715       -8.6184596972
 H        -3.0395905397       -3.2277008325       -7.0444769929
 H        -3.3214125228       -4.5630998119       -8.0597208716
 H        -1.1143979273       -6.5245486026       -8.4482134174
 H        -0.9284463261       -5.1242342222       -9.4923358363
 H         0.3079142020       -5.5381780403       -8.1703567456
 H         0.5622423190       -6.8800533803       -3.7099020944
 H        -1.1595373647       -6.7850086258       -3.6821258369
 H        -2.5098237892       -3.6168306659       -0.4381761438
 H        -1.6533891744       -4.4528873087        0.9278961891
 H        -2.4756410110       -5.9248749774       -1.3016767808
 H        -1.3847716366       -6.7042980995       -0.2723789132
 H        -1.4194871474       -7.1368016639       -1.9729157226
 H         1.1147908289       -5.7558641281        0.0131884397
 H         1.1311126274       -6.9282848213       -1.3281133905
 H         1.9088304307       -5.2858444938       -1.6129639334
 H        -2.1672655375       -1.8761124309        1.4131894867
 H        -0.4390069480       -2.1740702065        1.2776457541
 H         0.6416463644        2.1871370273        1.1127512637
 H         1.3351981438        0.7915030905        1.8884942282
 H        -1.2511046374        2.2003510664       -1.0742640163
 H        -2.4859313870        0.8042181444       -1.6800665987
 H        -0.7690327806        0.9280630559       -2.2953179749
 H        -1.6602727829        1.8536915344        0.7219912605
 H        -2.6586346545        0.4094783586        1.2155264727
 H        -1.2732984821        0.5873788758        2.0534481220
 H         3.2599004946        0.8251333587        0.6501311547
 H         3.0683476820        1.9026515702        1.9219458386
 H         4.6617792842        5.7309953339        2.4591356046
 H         3.3461411041        6.7724666895        1.8955944491
 H         5.9758376710        4.4224106864        1.1709372835
 H         5.6892723598        2.8217460025        0.4811157081
 H         5.1105629888        3.1249066002        2.0859832541
 H         4.7970910469        4.9188553597       -1.4904793282
 H         3.1914713875        5.0992744716       -1.4155172188
 H         4.2567543670        6.0812661158       -0.2883158595
 H         2.9922296184        6.5265777710        4.3392159762
 H         1.7556840042        5.5088539309        3.4064940966
 H         1.6135022377        2.0614328129        4.0301683539
 H         1.5922623750        1.2984717685        5.5442646425
 H         3.7579760737        2.2063438266        6.9503852954
 H         5.0926798383        3.1219098818        6.2121588200
 H         4.1824185325        2.1628236059        5.0961249601
 H         2.8144220432        6.0963958683        6.2347310326
 H         2.7120446927        4.9463035970        7.5800585623
 H         4.2637661091        5.2374026749        7.0057375907
 H        -0.6880418754        2.9303881390        4.2799756361
 H        -0.8290309312        2.4848286339        5.9516163657
 H        -4.6116568724        0.9938554843        2.9177852825
 H        -5.3071504665        0.7407494556        4.5574579666
 H        -2.2176283090       -1.6652702335        4.7647974828
 H        -2.9556896923       -0.8494094120        3.4680395484
 H        -3.9443249340       -1.1244706332        4.9498351491
 H        -2.5491459090        1.7433019344        6.8384983276
 H        -3.4783378245        0.3986281558        7.0417027331
 H        -1.8482911612        0.1509489214        7.1124967536
 H        -6.1832561678        2.9700080059        4.6207294157
 H        -5.1431484542        3.4192484138        3.1827775468
 H        -8.6475887585        0.2108186670        3.3880566671
 H       -10.1837938878        0.5259505133        4.2328947794
 H        -9.9592175096        0.7173975914        2.3729663672
 H        -7.2185671835        4.9003212144        3.8675826063
 H        -8.9366097295        4.9630063984        3.3201478809
 H        -7.5465101494        5.1143090268        2.2961936238
 H        -9.9478199071        3.5413942757        1.5453203132
 H        -8.4726142995        3.6869463324        0.6354851272
 H        -9.0961203238        2.0058301568        1.0553391245
 Na        0.5060694056       -1.6270844386       -2.3904465331
