155

 C         4.7625528949       -1.2574904899       -5.6217528571
 C         3.5101291706       -1.1489643771       -4.8488484104
 C         2.3755841646       -0.1465448801       -5.4132969518
 C         1.0613339309       -0.9252240170       -5.7178068362
 C         0.5881288580       -1.0647439906       -7.1869742366
 C         2.0382970979        0.9262042443       -4.2419355481
 C         2.8381719103        0.6018362676       -6.6763485165
 O         3.2107429097       -1.8075187560       -3.8691057251
 O         0.2653696154       -1.1858861536       -4.8713587824
 C        -0.5998999087       -1.9497470219       -7.4199852637
 C        -0.2614995762       -3.4971086674       -7.4209664469
 C        -1.5248608132       -4.5715813524       -7.2000306673
 C        -1.4848374742       -5.3888929853       -5.9084680190
 C        -0.1341915057       -5.9784362465       -5.4112273814
 O         0.9021195588       -3.9225252755       -7.4621558836
 O        -2.5214953341       -5.5747069475       -5.2998582434
 C        -2.9348322157       -3.8539698756       -7.3950834961
 C        -1.2979301419       -5.5808475266       -8.3956883563
 C        -0.0626615592       -6.3190522867       -3.9300527010
 C         0.1083602161       -5.0808987082       -2.9702666100
 C        -0.2828078333       -5.2246330214       -1.4231620050
 C        -0.3200931124       -3.7879221776       -0.6925383994
 C        -1.7286161780       -3.2170573861       -0.4273792759
 C        -1.5790150157       -6.0231540498       -1.2345330670
 C         0.7763434144       -6.0675633844       -0.6046775751
 O         0.6882658407       -4.1330130729       -3.4304898681
 O         0.7244139561       -3.2170839747       -0.4466422093
 C        -1.6141256220       -1.7731737610        0.0682338133
 C        -1.2622530838       -0.8300017979       -1.1008120396
 C        -0.8234542246        0.6302528240       -0.6456360737
 C         0.6800165697        0.3553321170       -0.2033683979
 C         1.2293896424        0.9972431225        1.0363449716
 O        -1.1674056832       -1.2591322301       -2.2042004975
 O         1.4532439809       -0.2542010709       -0.9265645634
 C        -1.1038253217        1.6265030058       -1.8024771357
 C        -1.5756122827        1.0806660138        0.6138703190
 C         2.6727951424        1.3892059398        0.9872145746
 C         2.8560108989        2.5636297736        0.0270177645
 C         3.6304124907        3.7550345564        0.5224847419
 C         2.8884359148        4.2883025351        1.7885452078
 C         3.4417510803        5.5129487630        2.4701047848
 C         5.0362793250        3.3715768928        0.7798405100
 C         3.6834160538        5.0123770369       -0.4404175417
 O         2.4267001639        2.5761680543       -1.0889294537
 O         1.8005991805        3.8839866572        2.1947518851
 C         3.0601804430        5.5580552015        3.9287942800
 C         3.4009041327        4.1985607675        4.6150425895
 C         2.9832868996        4.0387432918        6.1037159067
 C         1.4092798365        3.8366758698        6.1477779975
 C         0.7440794751        2.7015749500        5.2955030872
 O         3.9528134300        3.3195787266        3.9682851593
 O         0.6963552227        4.6481431405        6.8013234291
 C         3.8665905555        2.7911823123        6.5654177571
 C         3.2961762924        5.4349696370        6.8874035732
 C        -0.7351606180        2.5497574528        5.4658716946
 C        -1.2937169484        1.2937803904        4.9083518601
 C        -2.7982571134        0.8165116703        5.2506256607
 C        -3.8695490080        1.8530628764        4.8595264736
 C        -4.8819605699        1.5137521947        3.7772744436
 C        -2.9813742126       -0.5741617571        4.4279635119
 C        -2.9632240969        0.5410203306        6.7197211198
 O        -0.6568587205        0.6950476004        4.0378283369
 O        -3.9655430257        2.9031687612        5.5114010020
 C        -5.9555174495        2.4953428110        3.4299697473
 C        -6.8732934805        1.9947451582        2.3759869118
 C        -8.3465473289        2.5881294054        2.3201300046
 C        -9.0221473507        1.8634150779        3.5167406957
 C        -9.9301473276        0.6174515506        3.1126023185
 O        -6.4800075665        1.1997092409        1.4638514884
 O        -8.8946237772        2.1441573810        4.6805932294
 C        -8.1227214436        4.0858560095        2.6196716173
 C        -8.9087852783        2.3832517587        0.8779765975
 H         4.6088042750       -1.6850796151       -6.5691182177
 H         5.2023348019       -0.2927811549       -5.7776477527
 H         5.4075903416       -2.0315303797       -5.1160199688
 H         0.3745513759       -0.0368309404       -7.4812197835
 H         1.4560733276       -1.4817785394       -7.8637061569
 H         0.9817293074        0.7794794194       -3.7824361144
 H         2.1116079210        1.9716929652       -4.6401199198
 H         2.8338724175        0.7470374690       -3.4718491616
 H         2.7851309776        0.0944056238       -7.6143808353
 H         2.3308687121        1.6179511143       -6.8018690259
 H         3.8949150221        0.9103575693       -6.5697821835
 H        -1.5094955195       -1.8557225277       -6.8285851856
 H        -1.0175657842       -1.6575866085       -8.4381964567
 H         0.0813280910       -6.8501024473       -6.0796528623
 H         0.6993867410       -5.2900388700       -5.7173092893
 H        -2.8059060138       -3.1346532957       -8.2408836509
 H        -3.2778004212       -3.4504832947       -6.4979781064
 H        -3.6879529335       -4.5855821637       -7.6266909587
 H        -1.7977869725       -6.5218009075       -8.0818557997
 H        -1.6708481212       -5.1495115625       -9.3210070821
 H        -0.2091212676       -5.7149224220       -8.5516308977
 H         0.7643870277       -6.9887225392       -3.6799878275
 H        -0.8695364337       -7.0192163763       -3.6804662597
 H        -2.2841609757       -3.0847219049       -1.3142482435
 H        -2.1086974563       -3.8038038644        0.3900550065
 H        -2.3065835751       -5.6623692574       -1.9320158517
 H        -2.0077173238       -5.9171144910       -0.2066801140
 H        -1.4060021112       -7.1455809752       -1.3287863611
 H         0.3523454573       -6.0243717902        0.4448559927
 H         0.8340921260       -7.0932476736       -0.9367348091
 H         1.7214623384       -5.5018299170       -0.5815204368
 H        -2.6073520879       -1.5979711406        0.5424392554
 H        -0.8158929645       -1.5188150973        0.8036339238
 H         0.7043653086        1.8259992954        1.6332982184
 H         1.1924543345        0.1912017045        1.8269652276
 H        -0.9500433992        2.7058795003       -1.5495794750
 H        -2.1683880693        1.4763511083       -2.1069614276
 H        -0.4792318203        1.3633122869       -2.6130534587
 H        -1.4194677144        2.1940431988        0.6233579873
 H        -2.6914900344        0.8394610647        0.6800163096
 H        -1.0387317789        0.8624376146        1.5207209337
 H         3.4474661412        0.5723303045        0.8118339655
 H         2.9883079804        1.8607404840        1.9167798195
 H         4.5372223190        5.4052315133        2.3973950926
 H         3.1324793003        6.4441117774        1.9345795094
 H         5.6839120762        4.2725988782        0.7828131910
 H         5.3623648910        2.8202787368       -0.1059854775
 H         5.1885921677        2.7960817882        1.7217852048
 H         4.1750916925        4.7697485362       -1.4117372482
 H         2.7872211997        5.5641021613       -0.5661651192
 H         4.4252074785        5.7301079400       -0.0376953643
 H         3.3825467048        6.4516249891        4.4803894820
 H         1.9182631466        5.6104272908        4.0533571185
 H         0.9096906638        2.9115330233        4.2510997331
 H         1.2737497275        1.8141158128        5.6480989549
 H         3.2537741145        2.1991116844        7.3003256237
 H         4.7364149649        3.1562758734        7.0794138034
 H         3.9343654319        2.0573067979        5.8294552935
 H         2.7757858926        6.3373326263        6.4323777188
 H         3.0105631952        5.2969813292        7.8910402411
 H         4.4312410928        5.4771834967        6.8281777689
 H        -1.3836154987        3.3209428149        5.1587871638
 H        -0.8958804552        2.5494771557        6.5528229298
 H        -4.1700883634        1.2950857925        3.0108739370
 H        -5.2868469368        0.5116548079        3.8728860615
 H        -2.1945478247       -1.2098401984        4.6332738222
 H        -3.1160851913       -0.3780178378        3.3181406716
 H        -3.9051395460       -1.0914063364        4.6578804107
 H        -2.5497189909        1.2768670778        7.4073187926
 H        -3.9773243199        0.3308819655        6.9602857606
 H        -2.3698757326       -0.3369896222        7.0305714980
 H        -6.7064571172        2.7840224543        4.2514760978
 H        -5.5397780003        3.4289668508        3.0485917744
 H        -9.5090768701        0.0197864162        2.3851559418
 H        -9.9385417840        0.0357023327        4.0235776716
 H       -10.9327805060        0.8713888742        2.8549786171
 H        -8.1112986534        4.4171859723        3.7090774946
 H        -8.9957794935        4.6920070442        2.3694205015
 H        -7.2615256161        4.3694123861        2.1073263709
 H        -9.9619407234        2.6813515865        0.8595058183
 H        -8.2656885127        2.9358841510        0.1441090438
 H        -8.8662322474        1.3121599779        0.7028700270
 Na        1.0517311861       -1.8535157394       -2.4836717962
