155

 C         4.0048448109       -2.0365620835       -5.9441638100
 C         3.0647851588       -1.1310820805       -5.0754880610
 C         2.2501017743        0.0252526072       -5.7546376109
 C         0.9003157039       -0.8304782784       -5.9465353458
 C         0.6184642252       -1.3771420719       -7.4083818533
 C         1.9347539427        1.3299037379       -4.8837029570
 C         2.8995782423        0.5313377180       -7.0304985166
 O         2.9489421545       -1.3011608352       -3.8652846210
 O         0.1634923672       -1.0159255484       -4.9789254039
 C        -0.2768968818       -2.6275551279       -7.4542516153
 C         0.5614702231       -3.8575589397       -7.4526720026
 C        -0.2027349010       -5.1639384783       -7.3890284011
 C        -0.3321721868       -5.3847897021       -5.8075349740
 C         0.8344598360       -6.0270337994       -5.1201841971
 O         1.7800889577       -3.8726099471       -7.3190014467
 O        -1.3074703398       -4.9763102068       -5.1550221725
 C        -1.5936114936       -5.0390123612       -7.9334394139
 C         0.4527006804       -6.4469249204       -8.0105019672
 C         0.9546292765       -5.8217574133       -3.6325615324
 C         0.5027005792       -4.4568348439       -3.0691804582
 C        -0.2291126544       -4.5503574730       -1.5941892813
 C        -0.7395929803       -3.1587526687       -1.1857747076
 C        -2.0003624821       -2.5756962079       -1.8846077517
 C        -1.4753406974       -5.5231942741       -1.6943531546
 C         0.9517535906       -5.0008247530       -0.6827010606
 O         0.6555772377       -3.3274179371       -3.5342829053
 O        -0.0796783565       -2.4323939448       -0.4808599404
 C        -2.4559848007       -1.3550734194       -1.1671072122
 C        -1.5000870864       -0.0877773807       -1.4412838083
 C        -1.1179725275        0.8668741836       -0.3471357948
 C         0.3596345572        0.8627918597        0.1096889127
 C         0.7009219232        1.2861862511        1.5411288266
 O        -1.2193914441        0.1602501994       -2.6246814529
 O         1.2241595474        0.6334376140       -0.7125933371
 C        -1.0987109464        2.3840370728       -0.8332276690
 C        -2.1082518996        0.6907530256        0.9189983481
 C         2.2509228471        1.6576063688        1.6747776305
 C         2.4756076101        2.9887857151        1.0164423289
 C         3.8037440323        3.8453055422        1.4700154829
 C         3.4195403623        4.3755100682        2.8457192001
 C         4.4534829285        4.5260339859        3.9809894337
 C         5.1597146059        2.9859438595        1.3625689591
 C         3.9825423076        5.0619918427        0.6233325751
 O         1.7432615411        3.4970597667        0.1962166211
 O         2.2680864336        4.5923464052        3.1336464104
 C         3.8080180840        5.1442307168        5.2785159276
 C         2.8711134520        4.1171624323        6.0051463487
 C         1.5947873704        4.6428962383        6.7194178515
 C         0.5008713621        4.4079535433        5.5230605561
 C         0.1638154306        2.9577329616        5.2837488333
 O         3.0580169197        2.9097426573        5.9841001451
 O         0.1480295983        5.3475591236        4.8496615767
 C         1.3960742610        3.7551669598        8.0024096402
 C         1.5406412392        6.1308185961        7.1086471099
 C        -1.3533395766        2.7018496139        5.7105731399
 C        -1.9997867891        1.5662324497        5.1406936440
 C        -3.2067691345        1.0334225642        5.9771442149
 C        -4.4937299381        1.2013467805        5.0774765590
 C        -4.7462752807        0.2439946065        3.9139227983
 C        -3.0117826811       -0.5365794497        6.3439165962
 C        -3.4679810767        1.8228699438        7.3765894960
 O        -1.7153551606        1.0605975725        4.0884336473
 O        -5.2340911471        2.1500039544        5.2396575696
 C        -6.1464989035        0.4427803122        3.2648330342
 C        -6.0690185838        0.8854462671        1.8737595657
 C        -7.3285607255        1.2345142183        1.0308417356
 C        -8.1960727149       -0.1941082674        1.0750532103
 C        -9.7471734372       -0.0736696777        0.8459746219
 O        -5.0016530421        1.0400797904        1.3685762237
 O        -7.6467944245       -1.2837885563        1.1787451822
 C        -8.0556480184        2.3893603694        1.5687729961
 C        -6.8933489453        1.2844046329       -0.5233089145
 H         3.5988282268       -2.2906229649       -6.9124156615
 H         4.9243941363       -1.5238585263       -6.1377188371
 H         4.3655477937       -2.9479246836       -5.3663666821
 H         0.2794627753       -0.5964235436       -8.1020125000
 H         1.5788200204       -1.5981973002       -7.9858812542
 H         2.3649880287        1.1890450138       -3.8443576686
 H         0.8567364608        1.4476230738       -4.5769885830
 H         2.2770720335        2.2344123774       -5.3756769273
 H         3.0467013696       -0.1560755514       -7.8940269139
 H         2.3948247107        1.3270272156       -7.4690189762
 H         3.8755183662        0.9865404951       -6.7452512184
 H        -1.0149535971       -2.6290664413       -6.6662175931
 H        -0.9903835010       -2.5907108955       -8.2291153370
 H         0.9098408169       -7.0863320259       -5.3662809710
 H         1.7154446791       -5.6557099577       -5.6612530808
 H        -1.5331876179       -4.7127640896       -8.9128871047
 H        -2.1781324396       -4.2152261346       -7.4856983852
 H        -2.2342525592       -5.8927563269       -7.9499371492
 H        -0.1398932368       -7.3359720090       -7.7712377714
 H         0.4957679886       -6.3270328867       -9.0737339779
 H         1.4656660727       -6.6831107675       -7.7948469808
 H         2.0861143072       -5.9773165749       -3.3892861807
 H         0.3420787073       -6.5873470109       -3.1373371854
 H        -2.0601474434       -2.5355523573       -2.9762878878
 H        -2.8133122745       -3.2765915977       -1.5601091284
 H        -1.9785778840       -5.2468444238       -2.6316802774
 H        -2.2781929861       -5.4124954945       -0.9887576372
 H        -1.1498629222       -6.5463842776       -1.6718357481
 H         0.7929098310       -4.8124626242        0.3351552152
 H         1.1535747871       -6.0536881011       -0.7349049718
 H         1.8791381379       -4.5139040263       -0.9490290430
 H        -3.3288337252       -0.8789076500       -1.4703198758
 H        -2.5095473113       -1.5463240135       -0.0931838507
 H         0.1112764919        2.2132266073        1.7954563096
 H         0.3559007104        0.4980684162        2.1979568998
 H        -0.9246064612        3.1074146233       -0.0291185594
 H        -1.9428821387        2.6021997485       -1.5602580940
 H        -0.2638946327        2.6175909576       -1.4557702544
 H        -2.2083188991        1.6733655016        1.4675161148
 H        -3.0218936723        0.2577130628        0.6406349690
 H        -1.5917873532       -0.0652989609        1.5245861976
 H         2.7634319958        0.9005343001        1.0045045204
 H         2.5675794927        1.4240668610        2.7063696123
 H         4.9764558493        3.5578201921        4.2197903465
 H         5.2641002829        5.1791204784        3.5280628943
 H         5.9752963729        3.1878710149        2.0767185103
 H         5.6201065856        3.0295347221        0.4352218487
 H         4.8983750321        1.9170225211        1.5630915876
 H         4.1607508450        4.8572931366       -0.4035518674
 H         3.0373905737        5.6520646337        0.5983080060
 H         4.9149298136        5.5502852943        0.9845488741
 H         4.6027604628        5.4907816133        5.8642533100
 H         3.3007289637        6.0952819549        5.0914688263
 H         0.2281400505        2.6760985915        4.2264181315
 H         0.8410888935        2.2148957279        5.7323795077
 H         0.4596595963        3.2496079319        8.1548080683
 H         1.3655557685        4.3661871245        8.9141735179
 H         2.1191748534        2.9629012949        8.0528664370
 H         1.3195299039        6.6929180832        6.1675136525
 H         0.6733670386        6.3602540770        7.7044597217
 H         2.4473469876        6.4427166173        7.6988705021
 H        -1.8402541696        3.6421808034        5.2765257204
 H        -1.4401862655        2.6035775071        6.8873020355
 H        -3.8630809233        0.3349308737        3.2751198589
 H        -4.6023041709       -0.8282202058        4.2716018167
 H        -2.5978836385       -0.6960438041        7.4065795639
 H        -2.3566843291       -0.9901106334        5.6306286305
 H        -3.9755210943       -1.1615087569        6.3269433663
 H        -3.6403225547        2.8173889146        7.0516300200
 H        -4.4544069507        1.4976751329        7.7707782521
 H        -2.6788257247        1.5690139027        8.0650178203
 H        -6.7008680620       -0.5000457875        3.3723542023
 H        -6.7817874218        1.0858240963        3.8904940527
 H        -9.9748314292        0.0847808436       -0.2154430875
 H       -10.1822206448       -0.9953829281        1.1560269972
 H       -10.1001144620        0.7396963017        1.4181599317
 H        -8.3653934995        2.2346294218        2.5471628956
 H        -9.0310648740        2.5525867101        1.1182795861
 H        -7.3492203568        3.2291465155        1.3823705184
 H        -7.7725094341        1.5759436946       -1.1038251692
 H        -6.0742247289        1.9936754799       -0.6925117176
 H        -6.7073329929        0.2888232614       -0.9023963275
 Na        0.9841634118       -0.8717914399       -2.6690720051
