155

 C         4.2697212108       -1.5070774612       -5.6373559102
 C         3.1542764447       -0.9082752007       -4.8908549763
 C         2.0779036014        0.1022009729       -5.6610223097
 C         0.7132831120       -0.7193947065       -5.9719451458
 C         0.0873142669       -0.8346144284       -7.3503986350
 C         1.8880803307        1.4304273015       -4.8596174260
 C         2.7348669646        0.6100524867       -6.9510933850
 O         3.0307765417       -1.0882603922       -3.7017167299
 O         0.1554982118       -1.2228806517       -5.0412023397
 C        -0.2848814136       -2.3322718628       -7.5325355523
 C         0.9262789953       -3.2738857547       -7.3079277320
 C         0.6241642911       -4.8849855804       -7.2178304153
 C         0.1597596112       -5.0104506867       -5.7078064036
 C         1.2635775155       -5.4816414051       -4.7170293944
 O         2.0339299548       -2.8227826841       -7.1166914020
 O        -0.9449564065       -4.6105987203       -5.3273596171
 C        -0.5647085923       -5.2475663723       -8.1662387425
 C         1.8834674304       -5.6703955493       -7.6502047473
 C         0.6969941329       -5.7381334882       -3.3183156041
 C         0.4648258272       -4.4257045079       -2.6490273174
 C        -0.5752259774       -4.3646914708       -1.4515046342
 C        -0.7261941541       -2.9878301598       -0.7678275390
 C        -2.1126176880       -2.4136421925       -0.5395251980
 C        -2.0046528708       -4.8640940665       -2.0472464038
 C        -0.4219339636       -5.3122134220       -0.2370875245
 O         1.0176261408       -3.4252138152       -2.9804179384
 O         0.2366916726       -2.3014215325       -0.6092686339
 C        -2.2168690156       -1.0490443398        0.0482951356
 C        -1.3628915604       -0.0978580180       -0.8868965321
 C        -0.6261338830        1.1797407690       -0.4090634636
 C         0.9130335048        0.7896174770       -0.0714581606
 C         1.4110397683        0.9959394613        1.4200246416
 O        -1.2841343864       -0.4038880790       -2.0670915467
 O         1.6874984473        0.3247676623       -0.8582996460
 C        -0.4711699445        2.1303613736       -1.5719648088
 C        -1.3625045424        1.8903352032        0.7091561276
 C         2.9024846865        1.3506469759        1.2849766734
 C         3.1325717846        2.7263460971        0.6939095270
 C         4.1477565000        3.6168998412        1.3757081009
 C         3.3435123474        3.9681654784        2.6176664854
 C         3.9767364511        4.7890880464        3.8051023090
 C         5.5103461455        2.8054299666        1.6243319531
 C         4.4083022827        4.9504427079        0.6324413835
 O         2.5386185694        3.1529214870       -0.2509140040
 O         2.2304712411        3.5557914994        2.7337006061
 C         2.8617550609        5.4817317564        4.7010109903
 C         2.2602796981        4.3583402802        5.5254127716
 C         0.9709616243        4.7114250002        6.4980315678
 C        -0.2470958838        4.5343202234        5.4716623755
 C        -0.6311710541        3.0855257093        5.1666136535
 O         2.5496979442        3.1535036988        5.4491158563
 O        -0.9889683102        5.4447254303        5.2660255166
 C         0.8582138445        3.6172654847        7.5944125153
 C         1.0042897235        6.1611575878        7.0252881107
 C        -2.0469837291        2.7637821265        5.6198118560
 C        -2.3574750537        1.2721542038        5.5526851759
 C        -3.7616128116        0.7947468544        6.1832339510
 C        -4.8346924740        0.9529383249        5.1242177632
 C        -4.5286087864        0.4427421931        3.6755217091
 C        -3.7753412001       -0.6582135387        6.5574486459
 C        -4.2579616331        1.5937542580        7.4311228462
 O        -1.6601815339        0.4300127748        5.0785780542
 O        -5.8612866095        1.5268554234        5.3703437167
 C        -5.8760784110        0.2000140092        2.9327623596
 C        -5.9119142806        0.7609283618        1.4866675316
 C        -7.3325582240        0.7640572836        0.7835048523
 C        -7.7276193977       -0.6474823625        0.3574627591
 C        -9.0597954741       -0.8847659454       -0.3000889020
 O        -4.9702127669        1.2085469530        0.9264035956
 O        -6.9952531348       -1.5835169285        0.5986837111
 C        -8.3606325164        1.2582272910        1.8208958409
 C        -7.3485427448        1.7717319738       -0.4112744783
 H         4.0751874269       -1.8287609752       -6.6275318448
 H         5.1257256994       -0.8196183270       -5.6831038040
 H         4.5797666809       -2.4155714006       -5.0529163026
 H        -0.8576568596       -0.2527714089       -7.2958013588
 H         0.7923036848       -0.6258250022       -8.1402371556
 H         1.7216187214        1.3055157627       -3.7374023266
 H         1.2112324035        1.9922322326       -5.5606654691
 H         2.8612700203        1.8965090499       -4.8659424062
 H         2.9094301275       -0.2210488743       -7.6651954252
 H         2.1739781335        1.3406418225       -7.4599441341
 H         3.7692620799        1.0025216208       -6.6643369636
 H        -0.9902771325       -2.6756189617       -6.8503278903
 H        -0.7396524596       -2.3757695966       -8.5422254626
 H         1.6028476388       -6.4665586683       -5.0806140558
 H         2.0428208485       -4.7281324131       -4.6994008225
 H        -0.6676821286       -4.8232138527       -9.1126836788
 H        -1.5549415157       -5.1611365867       -7.6557482990
 H        -0.5735613152       -6.2817923352       -8.3022948758
 H         1.7184176753       -6.7804117099       -7.6446734101
 H         2.1378938850       -5.5527012624       -8.6902299290
 H         2.7533508926       -5.5141007594       -6.9942911293
 H         1.3745771341       -6.3630776506       -2.7353997523
 H        -0.2569538644       -6.3171283145       -3.4089131783
 H        -2.5594690658       -2.2643933799       -1.5541738640
 H        -2.6306307958       -3.1128873005        0.0824222512
 H        -2.2905521584       -4.3741499378       -2.9843828427
 H        -2.6730479051       -4.7771597823       -1.2929019132
 H        -1.9483049335       -5.9197781336       -2.3713260461
 H        -1.3332745796       -5.3392955120        0.4011094416
 H        -0.2038931365       -6.3250480997       -0.4495033191
 H         0.3868198043       -4.8942300174        0.3885674108
 H        -3.2529433855       -0.6524968871        0.1678626373
 H        -1.7390248445       -1.0580427962        1.0095708068
 H         0.8052145880        1.6521535525        2.0406389959
 H         1.4442266481        0.0248251819        1.8835961732
 H         0.2054432319        2.9919983190       -1.4380001399
 H        -1.3674148072        2.7204310456       -1.9100152623
 H        -0.0463254536        1.4884876374       -2.3223406203
 H        -1.1740744266        2.9365676157        0.7794393936
 H        -2.3969403580        1.6656524431        0.5013447145
 H        -1.1718989251        1.5114845697        1.7386794391
 H         3.3421779489        0.5299859717        0.7121325582
 H         3.3242990445        1.3385647550        2.3471346780
 H         4.4775312781        4.0024792504        4.4333095575
 H         4.6092423925        5.5783071714        3.3345141227
 H         6.2194261051        3.4224961154        2.1562205918
 H         5.9874682343        2.3391917395        0.7778377324
 H         5.2924842818        1.8944679597        2.1996956966
 H         4.7979144932        4.6791361966       -0.2960386341
 H         3.4518931623        5.5560635390        0.5445125479
 H         5.0433682363        5.6213861354        1.2548556560
 H         3.4226615989        6.1946667081        5.2690376307
 H         2.1512680353        5.9955897855        4.0997126420
 H        -0.7416991060        3.0745727163        4.0932142855
 H         0.1917010598        2.3879419226        5.5172290291
 H         1.7315257634        3.7824778587        8.2616617947
 H         0.9031147371        2.6600788138        7.1047250126
 H        -0.0246142756        3.5327910521        8.1818886008
 H         1.3801009228        6.9397455370        6.3273928415
 H        -0.0024689834        6.4441803805        7.3919438481
 H         1.7382654994        6.3241634467        7.8196778290
 H        -2.7403527963        3.3738208181        4.9889924633
 H        -2.1573880883        3.2472074433        6.6415141315
 H        -3.8900551036        1.1692144710        3.0847846296
 H        -4.0415862142       -0.4697902806        3.8939809660
 H        -4.0377602159       -0.8563477058        7.6172139650
 H        -2.8011342531       -1.0585187384        6.3429384563
 H        -4.5645028994       -1.2163273781        6.0042522677
 H        -4.1281490241        2.6168205704        7.1606671507
 H        -5.2646262643        1.1896534024        7.5514100520
 H        -3.5769866894        1.3009270150        8.2309618814
 H        -6.3126781432       -0.7871725966        2.8982687950
 H        -6.6444116450        0.6530569245        3.5626899423
 H        -9.1888493433       -0.3238804537       -1.2429260603
 H        -9.1115210247       -1.9573508428       -0.3763976140
 H        -9.6943802461       -0.5785217875        0.4394315866
 H        -8.5338026209        0.6782568450        2.7102451802
 H        -9.2199550263        1.5765562849        1.2589437935
 H        -7.9225155157        2.0765125650        2.3003952564
 H        -8.3302442708        2.2695480120       -0.4106897124
 H        -6.5351774067        2.5796522062       -0.3850542774
 H        -7.1875738308        1.2941708968       -1.3319954396
 Na        0.7988223015       -1.1318630481       -2.7785386028
