155

 C         4.6153457935       -0.8801034176       -5.5414456293
 C         3.2808097318       -0.4523127076       -5.0080373802
 C         2.1543749899        0.3729347391       -5.8856261424
 C         0.8072108254       -0.4496633533       -5.8884307977
 C         0.0722918746       -0.8590150691       -7.2413233135
 C         1.9518720245        1.7606386092       -5.1422862765
 C         2.7792822758        0.8124333811       -7.2390895959
 O         3.0947070046       -0.8547225670       -3.8985800443
 O         0.1549389896       -0.6539709155       -4.9177851137
 C        -0.2056174653       -2.4101151657       -7.2629551154
 C         1.0522045239       -3.2169729688       -7.0705450693
 C         0.8724288223       -4.7370184670       -7.0797262897
 C         0.3037437590       -5.1018516698       -5.6216159948
 C         1.2319093807       -5.8415003632       -4.5208217535
 O         2.1066557338       -2.7289601418       -6.7627190663
 O        -0.7974579077       -4.7200419139       -5.3879168280
 C        -0.1440103780       -5.3127722964       -8.1318831963
 C         2.2134012348       -5.4612339002       -7.3560263895
 C         0.5263059078       -5.6963622302       -3.1830711811
 C         0.2189956060       -4.3844990322       -2.6354618864
 C        -1.0244660361       -4.3635846394       -1.5570676563
 C        -0.9292122542       -3.1296879728       -0.5836343775
 C        -2.1070069819       -2.4297271733       -0.1056025257
 C        -2.4415951056       -4.4238589916       -2.2123587347
 C        -0.9652415444       -5.6329696225       -0.5733942424
 O         0.7931827576       -3.3318513687       -2.9376043456
 O         0.1599329761       -2.7589617528       -0.1910102567
 C        -1.9117716609       -0.8879864225        0.2974611266
 C        -1.2830485923       -0.1266839871       -0.9041393517
 C        -0.4649714167        1.2191026910       -0.4819283035
 C         0.9412129951        0.6141123749       -0.0448238727
 C         1.6221280091        0.9729257579        1.3433255932
 O        -1.2925229481       -0.5370189741       -2.0386852217
 O         1.5645501475       -0.0634615918       -0.7894917605
 C        -0.6778154537        2.0847245263       -1.8151042752
 C        -1.1117642499        2.0767005420        0.6175961435
 C         3.1248708844        1.1428015942        1.1724332474
 C         3.5805362801        2.5537152489        0.5227461483
 C         4.0576018178        3.7170789578        1.3719794055
 C         3.0432839506        3.9604537231        2.5257796069
 C         3.6509350556        4.9686058588        3.6784034621
 C         5.3429103296        3.2213764784        2.0959559421
 C         4.2814351145        4.8435242606        0.4433146884
 O         3.5168001113        2.5771241370       -0.6829800939
 O         1.9228203051        3.5687325817        2.5067603291
 C         2.6049900162        5.3921774189        4.7183691408
 C         2.0716478098        4.3067289817        5.5863165668
 C         0.8014008177        4.8220525838        6.4698456497
 C        -0.4648671675        4.6232884957        5.5908940361
 C        -0.9107447536        3.2254986823        5.2615238478
 O         2.4460404970        3.1347473606        5.6653508025
 O        -1.0509448200        5.5961705331        5.1802459912
 C         0.7031596282        3.8107919094        7.6826513867
 C         0.8864274512        6.2483172827        6.9635194686
 C        -2.1041907733        2.7091853013        6.0563561757
 C        -2.4239877429        1.2716759985        5.7863999212
 C        -3.8702627169        0.6801886686        6.3301518619
 C        -5.0324692520        1.0030990150        5.0673031917
 C        -4.6054631810        0.6591359249        3.6275724397
 C        -3.7646364914       -0.9393628248        6.4354096690
 C        -4.4332602772        1.3749119250        7.6341636624
 O        -1.8063386121        0.5585661987        4.9969895525
 O        -6.0534803083        1.4944624074        5.4120282914
 C        -5.7723226118       -0.1234737566        2.7505347161
 C        -5.9298122554        0.5002891545        1.4309282941
 C        -7.3016255264        0.6047868669        0.7143152277
 C        -7.5057520782       -0.8144418631        0.0516233336
 C        -8.7066310904       -1.0114819661       -0.8907153295
 O        -4.8835585900        0.8867108883        0.8754386078
 O        -6.6909560685       -1.6954612916        0.1791487429
 C        -8.4299899693        0.8233755942        1.6812217361
 C        -7.2531607632        1.8047473014       -0.3464253911
 H         4.5817936803       -1.9295827333       -5.6892361910
 H         4.8222687014       -0.4957439414       -6.4969047462
 H         5.5193127584       -0.7498837789       -4.8346084896
 H        -0.8907238213       -0.3327252943       -7.1230945258
 H         0.7833648336       -0.6453023716       -8.1074468458
 H         1.4798331064        1.5728917564       -4.1102871591
 H         1.3610626199        2.3189225544       -5.8457219978
 H         2.9108663424        2.1416487021       -5.0258391269
 H         3.0966415905       -0.1205952752       -7.7384314430
 H         2.1927536654        1.3495637287       -7.8846149808
 H         3.6589721417        1.4753583113       -6.9747809942
 H        -0.7880981136       -2.5801120284       -6.4039550116
 H        -0.7029468186       -2.7338579560       -8.2021472106
 H         1.2134286375       -6.9109498040       -4.7964143322
 H         2.2316669474       -5.4279589011       -4.4432000189
 H         0.1751492041       -5.1013374609       -9.1004053907
 H        -1.1785849611       -4.8645585610       -8.1618552961
 H        -0.2309664020       -6.3891686155       -8.0582993090
 H         2.0984441821       -6.5920507459       -7.4503475244
 H         2.5134488958       -5.0220120771       -8.3249913730
 H         3.0599854237       -5.2362584750       -6.6845225211
 H         1.1396990754       -6.1925156154       -2.3285795704
 H        -0.3613421305       -6.3470831951       -3.0516770346
 H        -2.9000887352       -2.4557309385       -0.9064631172
 H        -2.4124261610       -2.8764435486        0.8330226081
 H        -2.7713736054       -3.4743781466       -2.6655957577
 H        -3.1169191519       -4.7543025637       -1.4705678994
 H        -2.4030220183       -5.1392196233       -3.0677802140
 H        -1.3560733152       -5.2558258509        0.4153653720
 H        -1.8381696167       -6.2163485996       -0.8742280978
 H        -0.0647154674       -6.3155838997       -0.4529602445
 H        -2.9580152966       -0.6057626548        0.4960206982
 H        -1.4375212181       -0.8010011622        1.2662568971
 H         1.0287201784        1.6851311129        2.0037926328
 H         1.4819085253        0.0321224857        1.9341646393
 H        -0.0279744460        2.9996274977       -1.8450798666
 H        -1.8319696716        2.3816431984       -1.9191685434
 H        -0.3786218007        1.5585596246       -2.7255776158
 H        -0.5499226715        3.0173102325        0.5179187754
 H        -2.1340202584        2.1800573818        0.4512977941
 H        -1.0441919959        1.7914802786        1.6931061187
 H         3.5841410851        0.3835388525        0.5443938297
 H         3.7103300351        0.8927492652        2.1439833520
 H         4.4617547024        4.4413803796        4.2610010230
 H         4.0522040152        5.7618704303        2.9956283208
 H         5.8075433246        4.1232218741        2.5492828387
 H         6.0488590947        2.6425439153        1.5251504494
 H         4.9685485328        2.5215194690        2.9290669689
 H         4.8194161281        4.4171546469       -0.3341879115
 H         3.3184754295        5.1522185185        0.0055163384
 H         4.8948495816        5.6769216617        0.8495507433
 H         3.2683220507        5.8529440500        5.3984095397
 H         1.8940951342        6.0302966754        4.2813492618
 H        -1.2276110458        3.0968480722        4.2480866329
 H        -0.0366805286        2.4859250306        5.3023251008
 H         1.6771094722        3.8761703324        8.1595346023
 H         0.7188961675        2.7651361016        7.3112903551
 H        -0.1464657008        3.8980851033        8.3190927382
 H         0.3831822165        6.9429901686        6.2485074907
 H         0.3506509778        6.4612243934        7.8194358822
 H         1.8912829067        6.6817285849        7.1810862833
 H        -3.0089726011        3.4014618543        6.0145145660
 H        -1.8306012201        2.7133117136        7.2283600083
 H        -4.1569210953        1.5296641609        3.1804412520
 H        -3.9202967004       -0.1038793951        3.6931626068
 H        -3.6970120702       -1.2224456276        7.4966510947
 H        -2.9097728333       -1.2256040717        5.9569093586
 H        -4.6378549871       -1.4920213700        6.1317072139
 H        -4.8267078536        2.3039215464        7.2621822975
 H        -5.3534951950        0.7875912748        7.9229283550
 H        -3.6401847467        1.2300866218        8.3665908505
 H        -5.4390890907       -1.1525537163        2.6707312331
 H        -6.7475804660       -0.2464475357        3.2274944919
 H        -8.5277678369       -0.6627012500       -1.9422290282
 H        -8.8983429755       -2.0598370422       -0.8775995864
 H        -9.5177490260       -0.5556023013       -0.3232061002
 H        -8.6365078274        0.0665896925        2.3927929963
 H        -9.4053701492        0.9307975649        1.1814169141
 H        -8.1975739929        1.7407419515        2.2557904894
 H        -7.7848472826        1.5718462448       -1.2883852310
 H        -7.6647328012        2.8032182039       -0.0192169304
 H        -6.2604488042        1.8434306501       -0.7206940222
 Na        1.0117484938       -1.0922828608       -2.6623706782
