155

 C         4.8138866936       -0.0462555759       -5.3336011777
 C         3.2904778419       -0.2195839851       -5.0286123285
 C         2.1461725849        0.6887755054       -5.8920729152
 C         0.7268739208       -0.1021399755       -5.8654237927
 C         0.3028625156       -0.9385963756       -7.1375942256
 C         2.0235249646        2.0753407054       -5.0851830526
 C         2.5087741753        1.0706699448       -7.3041933720
 O         2.8992814580       -0.8086610145       -4.0286411270
 O         0.0628884874       -0.2034488865       -4.8428951061
 C         0.0811166438       -2.4392392490       -6.9198122524
 C         1.3523363966       -3.1764995674       -6.5525297617
 C         1.4020800683       -4.7428905500       -6.6611717427
 C         0.5309098379       -5.1970371745       -5.5246283158
 C         1.0330116032       -5.8401518811       -4.2455316754
 O         2.3915259999       -2.5960932240       -6.3098854289
 O        -0.6591351266       -4.9533419847       -5.5234113600
 C         0.6987295270       -5.3066529843       -7.9764190717
 C         2.8440575318       -5.2404946057       -6.4278741087
 C         0.0792570243       -5.8318147362       -3.0571936420
 C        -0.2707084114       -4.3784569148       -2.7056255589
 C        -1.4797436319       -4.1275208913       -1.6823995205
 C        -1.1400404716       -2.9821606934       -0.6208581158
 C        -2.3513424492       -2.4786480834        0.1032901144
 C        -2.4914423835       -3.5713452877       -2.7744222271
 C        -2.0786073015       -5.3073490289       -1.0421515124
 O         0.3008252735       -3.4040962776       -3.2498543636
 O        -0.0165681450       -2.7797742610       -0.3016797052
 C        -2.0313472448       -0.9610205018        0.4290314505
 C        -1.2521316337       -0.2630518836       -0.6347285926
 C        -0.4598629103        1.0124782403       -0.3233603999
 C         1.0246986004        0.7197514817        0.0186814753
 C         1.6113385000        1.2781307823        1.4066549373
 O        -1.0941331031       -0.8544569309       -1.6808291562
 O         1.7234038100       -0.0552451835       -0.6667875051
 C        -0.2435868505        2.0116690560       -1.4555583367
 C        -1.1316753226        1.8691034480        0.8383702573
 C         3.1550678324        1.3587474386        1.5897174734
 C         3.9709466036        2.3663857333        0.7392352900
 C         4.2242929915        3.7170135096        1.3436633328
 C         2.9424534782        4.2375791331        2.1072304770
 C         3.0391384439        4.5859524417        3.5750202456
 C         5.4675026187        3.6006737544        2.2159447318
 C         4.4600201127        4.7182192761        0.1950435712
 O         4.2559621872        2.0987707983       -0.4067534122
 O         1.8828301181        4.2285461849        1.4645184082
 C         1.7249343889        4.9104134272        4.2624059924
 C         1.6588703215        4.3886862487        5.7481716134
 C         0.5727207606        5.0120705026        6.5653347053
 C        -0.8172516260        4.5913326760        5.9456941575
 C        -0.9885119763        3.0534115090        5.6266337538
 O         2.5718504576        3.7525155932        6.1918087124
 O        -1.7062439122        5.3387789461        5.5753182528
 C         0.5258888844        4.2272978236        7.9215775674
 C         0.6029477400        6.5213368990        6.6796211183
 C        -2.3484899204        2.5707602610        6.1144324757
 C        -2.6244537105        1.1300195740        5.6559510252
 C        -3.9037780527        0.4584623710        6.2413928442
 C        -5.1410488494        0.6389110198        5.1754374958
 C        -4.9148652705        0.0824796162        3.7956519712
 C        -3.5593597476       -1.0141167523        6.4282891254
 C        -4.3269060552        1.0939914500        7.5555212355
 O        -1.9641670075        0.5873220745        4.7365632475
 O        -6.2038042143        1.1841852612        5.4677306911
 C        -6.1852303459        0.2543173808        2.8633402171
 C        -5.9353062136        0.2700535923        1.3616501304
 C        -6.9819991177        0.1233874317        0.2493855522
 C        -6.7194993379       -1.1450336860       -0.6176947335
 C        -7.4290920024       -1.1704131910       -1.9793091125
 O        -4.7767960874        0.5553633775        0.9470555678
 O        -6.1278053736       -2.1038077990       -0.2046030578
 C        -8.4873920230       -0.0659376215        0.7734201135
 C        -6.8709820201        1.3523079519       -0.6265720101
 H         5.3506152008       -0.1316909192       -4.3487231372
 H         5.1064984666       -0.8775711996       -5.9795503673
 H         5.0938042400        0.8485515023       -5.8320048092
 H        -0.5784149291       -0.4799801498       -7.6104926006
 H         0.9141876749       -0.6982968598       -8.0666890203
 H         1.3243020921        1.8460024786       -4.3332091542
 H         1.6359470451        2.8733093919       -5.6886541598
 H         3.0802974696        2.3665846017       -4.8452607434
 H         2.9887090317        0.2073507192       -7.7667113172
 H         1.5819291920        1.3076592929       -7.8161252376
 H         3.2572190316        1.8564259541       -7.3541545204
 H        -0.6942919969       -2.5919990409       -6.1322260327
 H        -0.2406420797       -2.9250148680       -7.8983496499
 H         1.5103757032       -6.8055518387       -4.4611160848
 H         1.8442909597       -5.2189341707       -3.8916032387
 H         1.1892722818       -4.8523160469       -8.8675988902
 H        -0.3571397695       -5.1233899517       -7.9759511319
 H         0.7602566610       -6.4396908362       -8.0377982439
 H         2.8336949704       -6.3029650581       -6.5935484231
 H         3.3870355948       -4.8032330905       -7.2489008701
 H         3.1855847366       -4.9714022063       -5.4589025231
 H         0.5866050210       -6.4783087911       -2.1922580202
 H        -0.9388286462       -6.2511499233       -3.2804879722
 H        -3.2946492132       -2.7992830782       -0.3466574832
 H        -2.4291753436       -3.0694196144        1.0247626226
 H        -2.0975407617       -2.6506336516       -3.1578198875
 H        -3.5267751981       -3.4405635202       -2.3363905743
 H        -2.6565458536       -4.3531366184       -3.4833241532
 H        -2.9177069312       -5.6066627009       -1.5903054264
 H        -1.3335177838       -6.1037452765       -0.9440900543
 H        -2.4143062112       -5.0354374576       -0.0681192599
 H        -2.9632088162       -0.3933659883        0.6539393384
 H        -1.5724579646       -0.9980579083        1.4329710696
 H         1.1401520247        2.2742643627        1.5734178951
 H         1.2604520673        0.6699139214        2.2585484106
 H         0.3323225797        2.8250430391       -1.0956027530
 H        -1.1848340144        2.3535134656       -1.7697606425
 H         0.2517378256        1.5935487326       -2.3474433124
 H        -0.4982936787        2.7727105419        1.1109653989
 H        -2.0005194069        2.3649651524        0.5216037082
 H        -1.2114261602        1.3076249142        1.7401016996
 H         3.6788403696        0.4101738065        1.5744045551
 H         3.3444209061        1.6552746047        2.6257094667
 H         3.5111854261        3.7424949018        3.9965905992
 H         3.8394521386        5.3054049924        3.6689228516
 H         5.4916175914        4.5121981703        2.8118899583
 H         6.3060252429        3.5438109965        1.5807705791
 H         5.3963147492        2.7954574399        2.9504225262
 H         5.3493221413        4.3878071816       -0.4367145751
 H         3.5727308100        4.6910000548       -0.4088245888
 H         4.6172731090        5.7870549673        0.4505937201
 H         1.6762757060        6.0105923319        4.4148768313
 H         0.7808415439        4.7706241192        3.6286746490
 H        -0.8297944848        2.9846744610        4.5844418624
 H        -0.3080796457        2.4339095496        6.1470545769
 H         1.5348508696        4.0441125613        8.1915718017
 H        -0.1311025191        3.3509186438        7.9214063465
 H         0.2394745232        4.9960583029        8.6181972732
 H         0.3176393837        7.0093270686        5.7519070021
 H        -0.0647214276        6.8100788459        7.4618464085
 H         1.5342731694        7.0059450498        6.9880187207
 H        -3.0929700243        3.1987959605        5.6407504788
 H        -2.5018067635        2.7020950134        7.1858288168
 H        -3.9583743765        0.4832427358        3.4807141912
 H        -4.6505133698       -0.9738196753        3.8265542832
 H        -3.1145190068       -1.2057555309        7.4364052084
 H        -2.7718161947       -1.2950393861        5.7134215108
 H        -4.3584700648       -1.6941038534        6.1069579803
 H        -4.6673590174        2.1150203264        7.3631485448
 H        -5.1582173433        0.4239453666        7.8048885423
 H        -3.5924639829        1.1343334764        8.3034363856
 H        -6.9231385303       -0.5176434487        3.2213459300
 H        -6.5159555019        1.3195346638        3.1063193751
 H        -6.9725993076       -0.5544271167       -2.7285812604
 H        -7.3887886167       -2.2482943888       -2.2257199729
 H        -8.5084202180       -0.8479434346       -1.8308104913
 H        -8.6510838394       -1.0292321426        1.2041264175
 H        -9.2905120464        0.1770196618        0.0367249308
 H        -8.7933014553        0.6191073800        1.6436520885
 H        -7.3655414477        1.1904638590       -1.5736042293
 H        -7.2331783314        2.2588204658       -0.2483063891
 H        -5.8158980698        1.6508741820       -0.8644409139
 Na        0.9168130485       -0.9893369011       -2.7994803488
