155

 C         4.5930814804       -0.3535484529       -5.1575832916
 C         3.1167786245       -0.1233259676       -4.6500611214
 C         2.0691157532        0.6462001283       -5.5244563937
 C         0.7797962353       -0.3463635992       -5.6235096340
 C         0.3817696005       -1.0038373358       -6.9540107042
 C         1.6072869666        2.0289923562       -4.9046317740
 C         2.4484368096        0.9763282471       -6.9992875923
 O         2.8230383930       -0.5449770225       -3.5710911232
 O         0.1762616407       -0.6127386342       -4.6251174375
 C         0.2498968340       -2.4939481560       -6.7514259455
 C         1.6186732025       -3.1535601448       -6.6398622464
 C         1.7239244862       -4.6942804210       -6.6270784389
 C         0.7003454643       -5.1900319066       -5.5962785950
 C         1.1157590821       -5.7466938171       -4.2331617986
 O         2.6014167756       -2.4833656002       -6.3603677369
 O        -0.5092498340       -5.0612947949       -5.8144597741
 C         1.2389117004       -5.0688028824       -8.0557512576
 C         3.1752770021       -5.1292445344       -6.2856074921
 C         0.0086009548       -5.7084810942       -3.1658858650
 C        -0.2696482592       -4.2988980164       -2.7291509567
 C        -1.6130526085       -3.8230408522       -1.9900384027
 C        -1.2089223513       -3.0609783773       -0.6220611346
 C        -2.2733146277       -2.2340070117        0.0144266559
 C        -2.5681602837       -2.9611739041       -3.0126040791
 C        -2.4748288825       -5.1090865315       -1.4097096024
 O         0.6074237788       -3.4594807435       -2.8993403432
 O        -0.1006574659       -3.1960967047       -0.2809559344
 C        -1.7442963996       -0.9651437439        0.7443340792
 C        -1.2984260982        0.0127422060       -0.3594053791
 C        -0.5100144232        1.3771901530       -0.1378676711
 C         0.8580739825        0.9063991979        0.1011196506
 C         1.6523806621        1.2017497404        1.4560977040
 O        -1.4182974770       -0.3083491296       -1.5190860398
 O         1.4903171053        0.1652656363       -0.7117786544
 C        -0.5664925642        2.1897524082       -1.4727973747
 C        -1.0928817274        2.2702021430        1.0280630629
 C         3.1868542907        1.1630255588        1.3377233477
 C         3.8824133985        2.2782200287        0.5357229957
 C         4.1906567774        3.6089887586        1.1988327957
 C         2.8901779720        4.2157286369        1.9643238342
 C         2.9507508216        4.2184284593        3.5148233296
 C         5.3963001601        3.4354274604        2.1515089471
 C         4.5942718868        4.5469168565        0.0187134487
 O         4.2172624899        2.0736040182       -0.5972430704
 O         1.9495798225        4.6167226160        1.2860958018
 C         1.6236852011        4.4877543768        4.1562987603
 C         1.6422098243        4.5595316296        5.8322175882
 C         0.4047908395        5.0883647837        6.5409181143
 C        -1.0443604725        4.6494091424        6.0124002995
 C        -1.2093083808        3.0609994337        5.5415496005
 O         2.5816885334        4.0298877142        6.3594356769
 O        -2.0627204406        5.3052175301        6.1261529112
 C         0.5545636602        4.8375387373        8.1049874422
 C         0.4623933973        6.6887025267        6.1626941047
 C        -2.4493897642        2.3522119898        6.1393939397
 C        -2.8626761601        1.0195619393        5.4229069078
 C        -4.1075099136        0.3277831172        5.9962931682
 C        -5.3597781432        0.3914922042        5.0824917376
 C        -5.2511327113       -0.4155820530        3.8164772739
 C        -3.6388727947       -1.1829359339        6.0546812122
 C        -4.4424740910        0.7183115412        7.4582155766
 O        -2.2188688948        0.4850754127        4.5380421379
 O        -6.1997072522        1.2419138133        5.2084654239
 C        -6.3272737676       -0.1205673138        2.7417242803
 C        -5.8617619653        0.2611782575        1.2982443399
 C        -6.8587291425        0.0101277753        0.1024411301
 C        -6.2324986584       -1.2187751019       -0.6656120718
 C        -6.4895491504       -1.3361691099       -2.1825872817
 O        -4.6978931417        0.4988403857        1.0357001973
 O        -5.5191020259       -1.9628564716       -0.0358506236
 C        -8.3396500025       -0.3321979821        0.5381671116
 C        -6.8378198332        1.2623296837       -0.7810522778
 H         4.9014034473       -1.3952107319       -4.8492016227
 H         4.5219491417       -0.3083336919       -6.2715091623
 H         5.3036628772        0.3427204445       -4.8725318349
 H        -0.5932648955       -0.6588445526       -7.3076888297
 H         0.9324876538       -0.6471511123       -7.8393727197
 H         1.6311433502        1.9021387995       -3.8394839232
 H         0.6126411396        2.1935037835       -5.3840653123
 H         2.3946476102        2.8646455010       -5.1769318044
 H         2.8287526042        0.1620968485       -7.6374310594
 H         1.4964954029        1.4530293174       -7.4347967462
 H         3.1318758071        1.8136839899       -7.0047521454
 H        -0.2492179881       -2.6663020746       -5.7804870103
 H        -0.3794913374       -2.9312862446       -7.5380179796
 H         1.5577413104       -6.7500044576       -4.2875314768
 H         1.9371440666       -5.1181570719       -3.9806067063
 H         1.7863389759       -4.4047406511       -8.7307276623
 H         0.2375050061       -4.8203656005       -8.0361379320
 H         1.3081283146       -6.1358253493       -8.3387994891
 H         3.1891870062       -6.2166752935       -6.2414695903
 H         3.7859946643       -4.8768753547       -7.1694369182
 H         3.3928787082       -4.6109769920       -5.3527065881
 H         0.4495679222       -6.2009785356       -2.2544291341
 H        -0.8224581097       -6.2399218258       -3.6545652660
 H        -3.1287461009       -2.0428455116       -0.5916372186
 H        -2.7536554336       -2.9713652180        0.6584874670
 H        -2.0654395702       -2.0151262623       -3.1370249417
 H        -3.5877181322       -2.9286677849       -2.5336440244
 H        -2.5889036701       -3.3741216047       -3.9759773968
 H        -2.6381546965       -5.8740998352       -2.1462749074
 H        -2.0627240127       -5.6665423012       -0.5109993915
 H        -3.4030334302       -4.6159777036       -1.1707447293
 H        -2.5359241169       -0.6719873249        1.4232826844
 H        -0.8841520205       -1.2153313260        1.3922234807
 H         1.4336755122        2.1714069642        1.8874944266
 H         1.3254113277        0.4003374354        2.0589409719
 H        -0.2579420936        3.2184502836       -1.2710379757
 H        -1.5718432670        2.4200288097       -1.6243135814
 H         0.0002011452        1.7597957811       -2.3579764371
 H        -0.9183109436        3.3427573049        0.7409086401
 H        -2.1523350558        2.1245701569        1.2053704235
 H        -0.5534360939        2.1760937712        1.9455309945
 H         3.5933365285        0.2819169091        0.8459434373
 H         3.5711672039        1.2703189281        2.3338871366
 H         3.3621138888        3.2718217876        3.7680719946
 H         3.6634335511        4.9334071635        3.9177181739
 H         5.5617234044        4.4633021140        2.4754670989
 H         6.2426869278        3.0429831402        1.5901549624
 H         5.2534983309        2.7017260674        2.9208976479
 H         5.3259428792        3.9691337021       -0.6732249957
 H         3.7563692771        4.8614569752       -0.5802335844
 H         4.9712411304        5.5194070103        0.3249393033
 H         1.0569473660        5.2972585040        3.7077756738
 H         0.8353068556        3.7048510281        3.9019932531
 H        -1.1732325247        3.0480824113        4.4458565325
 H        -0.3958604394        2.5431368464        5.9282307218
 H         1.3293208602        5.4844832580        8.4271327172
 H         0.7223413171        3.7844307380        8.2327058879
 H        -0.3983351318        5.0607998523        8.5990843568
 H         0.6108435073        6.8513915620        5.1068336063
 H        -0.4791435842        7.2558088585        6.4563918946
 H         1.3157644802        7.2245800236        6.5495760518
 H        -3.2559242858        3.0691130266        6.0878894282
 H        -2.2456532750        2.1480022321        7.1432665297
 H        -4.2746600065       -0.1180515680        3.3279765510
 H        -5.1238186738       -1.5143186604        3.9947993231
 H        -2.7673826580       -1.2423634289        6.6956099622
 H        -3.4160604298       -1.6558555039        5.0645351537
 H        -4.3472770017       -1.7754934318        6.6141616708
 H        -4.7242598322        1.7769913428        7.5580402984
 H        -5.1555038477       -0.0470449893        7.7605305015
 H        -3.5795159069        0.6007999122        8.0650630672
 H        -6.8023307139       -1.1175777450        2.5726559481
 H        -7.1346549994        0.5445543845        3.1224498306
 H        -5.9888109475       -0.5056898775       -2.5579486577
 H        -6.0052488296       -2.2856866511       -2.5320535987
 H        -7.5017489821       -1.1913775085       -2.4564342962
 H        -8.4212205789       -1.2194975127        1.1441987903
 H        -8.9079812909       -0.5925669055       -0.3280039404
 H        -8.8021722058        0.3888122104        1.2061063373
 H        -7.5937085853        1.1083683788       -1.5383103724
 H        -7.1908733293        2.1146397393       -0.3154647615
 H        -5.8892131320        1.6933276695       -1.1889998621
 Na        1.0181023981       -1.0169317996       -2.4258923513
