155

 C         4.5208573523       -0.2902850642       -4.5738922600
 C         3.0549721236       -0.4027011379       -4.2806307870
 C         2.0126417612        0.4027410999       -5.0326426779
 C         0.8830071647       -0.6183812338       -5.5213764886
 C         0.6139434017       -0.9788909620       -6.9571101663
 C         1.2240230125        1.4361012574       -4.1356961959
 C         2.5554939961        1.2867796753       -6.2005059296
 O         2.6810468761       -1.1783143532       -3.3790781129
 O         0.0492087698       -0.9779226761       -4.6870011413
 C         0.6801034408       -2.5350435152       -7.1754744509
 C         1.9727809930       -3.0851327986       -6.5439881920
 C         2.1288920796       -4.6583165753       -6.5572978265
 C         0.9100296715       -5.1759655769       -5.6753109419
 C         1.1512216556       -5.5981798031       -4.2885012158
 O         2.7987922231       -2.3736836264       -6.0624011451
 O        -0.1662011800       -5.3273740129       -6.1913451335
 C         1.8941021176       -5.2820406580       -8.0383242767
 C         3.5908472695       -5.0911150431       -6.0039480406
 C        -0.1236506738       -5.4480164841       -3.3852732489
 C        -0.2129303330       -4.0135238761       -2.9253654378
 C        -1.5140594920       -3.5197665176       -2.0755128513
 C        -1.1344836857       -2.6067254419       -0.8641115885
 C        -2.2996168915       -2.1199127526        0.1707313553
 C        -2.1846868306       -2.7656525887       -3.1936213093
 C        -2.2776770810       -4.7185552108       -1.5275001594
 O         0.7271763436       -3.2309632401       -3.0569629614
 O        -0.0552177678       -2.0577406576       -0.7432632001
 C        -2.1438127550       -0.7292610697        0.7677326220
 C        -1.3961834388        0.2523055224       -0.1781803990
 C        -0.6835207487        1.4457102722        0.5333318740
 C         0.7799319611        0.8526001995        0.5314141360
 C         1.7021837384        1.3048926185        1.7383047570
 O        -1.4782819979        0.1862820678       -1.3738544131
 O         1.2451665866        0.1067876362       -0.2956136348
 C        -0.7853103922        2.6987027157       -0.4312745329
 C        -1.3126983725        1.8520850347        1.8685167278
 C         3.1192412049        1.1192880990        1.3811318328
 C         3.5246749071        2.3735345050        0.5502891578
 C         4.1300138754        3.6203478955        1.1920593223
 C         2.9335111885        4.4500639710        1.9204358652
 C         2.7951818662        4.2098792307        3.4306157498
 C         5.1702719835        3.2918316091        2.2512558169
 C         4.7442025840        4.4403178696        0.0856160812
 O         3.3616345966        2.2939086539       -0.6709188226
 O         2.2287183607        5.0994324837        1.1902151996
 C         1.3638446536        4.6502379369        3.9664725449
 C         1.1703788725        4.4297511931        5.5250717416
 C         0.0267964474        5.2972042250        6.0893310643
 C        -1.2188162198        4.5037860986        6.1779671141
 C        -1.1263522975        2.9563695206        6.3955705922
 O         1.6799745152        3.4477953312        6.1178142954
 O        -2.2949495964        4.9976377838        5.8771458237
 C         0.3560024692        5.6103697503        7.6063825048
 C        -0.2313372655        6.6694626924        5.3738203513
 C        -2.5633463699        2.2532068659        6.6272072930
 C        -2.8532667399        1.1456820261        5.5276968460
 C        -4.0902223404        0.0799733926        5.7984588350
 C        -5.0831179397        0.0534688040        4.5789477480
 C        -4.8669756853       -0.9831395431        3.3364905706
 C        -3.3559508359       -1.3117503655        5.8798070954
 C        -4.8680483055        0.4217986272        7.1121283441
 O        -2.1473119986        0.9164389860        4.5700830286
 O        -6.1457169864        0.6768676119        4.6410265501
 C        -6.0469991475       -0.9567708875        2.3434198744
 C        -5.7338613348       -0.0161544732        1.1555947681
 C        -6.5402921865       -0.1459622867       -0.2060399535
 C        -5.6903805352       -1.2393538175       -0.9558200436
 C        -5.4473814749       -1.2279067471       -2.4387881028
 O        -4.9132676774        0.8369560176        1.2060316553
 O        -5.4423193299       -2.3395443073       -0.4122594474
 C        -7.9463586302       -0.5876410020        0.0146480747
 C        -6.4221059185        1.1660979469       -0.9753521019
 H         4.7978117830        0.0243938651       -5.5082596801
 H         5.0399442030        0.2232740857       -3.7466156877
 H         4.8350776963       -1.3543240258       -4.3943959043
 H        -0.4224966198       -0.7832194598       -7.0773451172
 H         1.3318955950       -0.4688919784       -7.4890848851
 H         0.8409056509        0.9885684558       -3.1627833407
 H         0.3823549257        1.9272061815       -4.6526688227
 H         1.9123673201        2.1640571216       -3.8862041843
 H         3.0650015495        0.7417922146       -6.9727571602
 H         1.7015422926        1.8770162106       -6.6568569174
 H         3.2696899859        1.9611986314       -5.8358817501
 H        -0.1989648615       -3.0525242904       -6.7822610069
 H         0.7493293949       -2.8339088582       -8.1779178089
 H         1.2848600743       -6.7232067855       -4.2997847432
 H         2.1097450965       -5.2255672158       -3.9280583201
 H         2.3474174799       -4.5509935014       -8.7487246178
 H         0.8160831856       -5.4232429786       -8.2356475178
 H         2.4934784556       -6.1731404339       -8.0351991390
 H         3.7026631648       -6.1340090145       -6.0743204877
 H         4.3183582852       -4.5285318646       -6.5720633871
 H         3.7212487121       -4.7713248170       -4.9694310356
 H        -0.1478348496       -5.9793980029       -2.5092632017
 H        -0.8431125408       -5.7018234588       -4.1338991284
 H        -3.2382203157       -2.2187595382       -0.3422100494
 H        -2.2060353262       -2.8407757060        0.9973632288
 H        -1.5984714979       -1.7982689314       -3.4468650283
 H        -3.1727951349       -2.4962644124       -2.8370345450
 H        -2.3410519643       -3.4929125334       -3.9990587090
 H        -2.6760182342       -5.3818464811       -2.3084469048
 H        -1.6239659922       -5.1924207297       -0.8208491359
 H        -3.1331844167       -4.4976753583       -0.9435591798
 H        -3.1418178906       -0.4567689209        0.9989157733
 H        -1.5973787073       -0.8570308376        1.7177573181
 H         1.6336246066        2.3617067881        2.0364220181
 H         1.2898371130        0.5741216259        2.4516012099
 H        -0.0387006603        3.4306989795       -0.0637931308
 H        -1.8507533186        2.9978705070       -0.3505423266
 H        -0.7054570809        2.5065371937       -1.4664732266
 H        -0.7571752056        2.7141395365        2.1849181901
 H        -2.3604943028        2.2703169645        1.6756778784
 H        -1.3507946991        1.1455119759        2.6845631777
 H         3.1780236289        0.1756447353        0.7207878558
 H         3.5911031690        1.0329544293        2.3328052171
 H         2.9918221898        3.1297685723        3.5678791984
 H         3.6549596823        4.7845429671        3.9070169351
 H         5.2916454112        4.0923078202        2.9853238296
 H         6.1960810034        3.1116257192        1.8093648682
 H         4.7861449917        2.5638613581        2.8983477300
 H         5.4418358197        3.9743638391       -0.5434531535
 H         4.0417824676        4.9215821061       -0.6019194455
 H         5.3368870589        5.1505492779        0.5684126238
 H         1.3784116953        5.6773912180        3.8009047459
 H         0.6575856650        4.0187023768        3.3951902151
 H        -0.5034557822        2.7035016356        5.3917341982
 H        -0.4837085260        2.6049175484        7.2115221578
 H         1.0857903930        6.4223914834        7.6180248773
 H         0.9162205336        4.7458472139        7.8616376683
 H        -0.5535039793        5.8981686933        8.1685252433
 H        -0.7865835186        6.4734279063        4.4618676728
 H        -0.8723837162        7.3610425326        5.9841589536
 H         0.6932308990        7.1752046632        5.1911459948
 H        -3.3165798572        3.1022819619        6.6769158786
 H        -2.4604366883        1.7963904564        7.5878464998
 H        -4.0670396673       -0.8013624616        2.6282553367
 H        -4.8163704225       -1.9432632268        3.8826346818
 H        -3.0224515058       -1.5325527602        6.8641054504
 H        -2.4352350305       -1.4768281389        5.2242390378
 H        -4.0888429192       -2.0416244988        5.5851238907
 H        -5.2668679289        1.4751137111        6.9711961552
 H        -5.7992863141       -0.1062808485        7.3807762611
 H        -4.1534776605        0.4491688951        8.0161626679
 H        -6.3172939381       -1.9664975277        2.0545364694
 H        -6.9189384828       -0.5848963929        2.8245100504
 H        -4.5512885809       -0.5342311757       -2.6476494828
 H        -5.1548901720       -2.2084148128       -2.7562200289
 H        -6.3254777314       -0.9176544747       -2.9899605545
 H        -7.9119275304       -1.6882118905        0.3373838507
 H        -8.4530470444       -0.5013728272       -0.9318003267
 H        -8.5818720427        0.0389226909        0.5784601136
 H        -6.7478911540        1.2488014382       -2.0183251963
 H        -7.0484289527        1.8384120421       -0.3374354434
 H        -5.4332072513        1.5479459885       -1.1047627530
 Na        0.4331167725       -0.8615913877       -2.3684793414
