155

 C         4.4722249239       -0.2266343548       -4.5611747116
 C         3.0288200477       -0.3022744036       -4.2110983388
 C         2.0060308915        0.5146398565       -5.0366356618
 C         0.8788484164       -0.4977812237       -5.5323737061
 C         0.9548741042       -0.9316866476       -7.0458414959
 C         1.6257658857        1.6169146576       -3.9961840091
 C         2.5487093396        1.2264505717       -6.2568341503
 O         2.7240286043       -0.9088225954       -3.2232379489
 O        -0.0682897262       -0.8690525175       -4.8985986905
 C         0.8876229456       -2.4578081404       -7.2289593951
 C         2.0907510956       -3.1968590891       -6.4854707777
 C         2.2790206211       -4.7596108839       -6.5961736274
 C         1.0746685288       -5.1329703954       -5.6387236916
 C         1.2764731844       -5.7483194136       -4.2229999535
 O         2.9543420978       -2.5547347998       -5.8583730141
 O        -0.0699945125       -4.9505044496       -6.0830690806
 C         2.0776997554       -5.2422479340       -8.0847852271
 C         3.7355395908       -5.0549337596       -6.1552558614
 C        -0.0177675206       -5.5966748875       -3.4292563655
 C        -0.2891859422       -4.1097037546       -2.8680131527
 C        -1.5552538256       -3.7604298958       -2.0686155468
 C        -1.2517309801       -2.7762672141       -0.7626438773
 C        -2.4845969489       -2.1261013402       -0.1094415630
 C        -2.5873578918       -2.9394888202       -2.9394463120
 C        -2.3731916903       -4.9184732593       -1.6169260538
 O         0.5963810655       -3.2982760117       -3.0096139705
 O        -0.1023974895       -2.5156797967       -0.5455724457
 C        -1.8275311781       -0.9645020796        0.7428889015
 C        -1.4754943203        0.2375766778       -0.0504413900
 C        -0.7361788740        1.4812413253        0.5570783339
 C         0.7871317523        1.0622687978        0.5760005442
 C         1.6272493375        1.2899776508        1.8352240764
 O        -1.6337794052        0.2144689506       -1.3016414224
 O         1.2262234223        0.5467476991       -0.4626515957
 C        -0.6450477580        2.7193926925       -0.3335865647
 C        -1.2021984900        1.8316962813        1.9621714689
 C         3.1879068127        1.2202251150        1.5111341113
 C         3.5369353547        2.3154790964        0.6112973680
 C         4.2605252558        3.6209705878        1.1918218571
 C         3.0840240775        4.4097617774        1.9619066613
 C         2.7930820506        4.3827466365        3.5726685242
 C         5.3604686484        3.2091524145        2.1779657227
 C         4.7287675192        4.6041596781        0.0809419320
 O         3.1776832598        2.3641198700       -0.5271159759
 O         2.2795869290        5.0634289510        1.3350315556
 C         1.4021308169        4.9091689201        3.8351322356
 C         0.9643216892        4.5386546060        5.2680130680
 C        -0.2267962993        5.1969343921        6.1154278863
 C        -1.5410056537        4.3919064227        6.0418464906
 C        -1.4244752009        2.9334990376        6.5597228421
 O         1.5279903226        3.6406886535        5.8061635444
 O        -2.5757317627        4.9176149723        5.7456496739
 C         0.3797334349        5.5035029214        7.4732288274
 C        -0.4689735282        6.5925726976        5.4558517288
 C        -2.7475960706        2.1812437681        6.5490907083
 C        -2.8257484831        1.0176450254        5.5360789083
 C        -4.0600991397       -0.0279361336        5.7731477959
 C        -5.0470765547       -0.0160000336        4.4265178859
 C        -4.6640273919       -0.9744005606        3.2859064110
 C        -3.3422890068       -1.3539936115        6.1363399718
 C        -5.0248831019        0.4221947819        6.8529069104
 O        -1.9373897810        0.8823822746        4.7168045815
 O        -6.0937667636        0.4934670308        4.5243702866
 C        -5.8675600335       -1.0327312672        2.2475156800
 C        -5.6893009721        0.0068458543        1.1463407849
 C        -6.5157064451       -0.0770003560       -0.1773262895
 C        -5.8272568639       -1.3120126670       -0.9705746977
 C        -5.5777637695       -1.0256641207       -2.4133253478
 O        -4.8851055641        0.9434108578        1.2843922609
 O        -5.5913315092       -2.3625504271       -0.4756635687
 C        -7.9877715308       -0.5800472919       -0.0758813881
 C        -6.4731900610        1.2665036510       -0.9223145393
 H         4.5999242566       -0.0392059449       -5.6935457559
 H         4.7842817357        0.7230392823       -4.0864508299
 H         5.0777209997       -0.9937021293       -4.1913533575
 H        -0.0316867360       -0.6557581112       -7.4376521080
 H         1.9569072651       -0.6012915716       -7.4711394547
 H         1.6308924562        1.2281031006       -3.0055215472
 H         0.5455041544        1.8449746100       -4.1567588987
 H         2.1968124178        2.6267668061       -4.1107492760
 H         3.2486770060        0.5780640434       -6.8204618279
 H         1.7517968125        1.6043485391       -6.8564770559
 H         3.2435634627        2.0758115216       -6.0444961081
 H        -0.0532888300       -2.8750842129       -6.9060665540
 H         0.9418869041       -2.7392755059       -8.3356638638
 H         1.5065492373       -6.7870931023       -4.2004169965
 H         2.0799569654       -5.2919792948       -3.6445358743
 H         2.8497812537       -4.8499767740       -8.7033827162
 H         1.1493574613       -4.8379432963       -8.3228643035
 H         2.0497264093       -6.3416175488       -8.0957380825
 H         3.8873551921       -6.1920799462       -6.2855226874
 H         4.3956791322       -4.5111358403       -6.8822403469
 H         3.9499207252       -4.8144603162       -5.0916993142
 H         0.1188082128       -6.2365375846       -2.4443245883
 H        -0.8778812191       -5.9478628848       -4.0540318936
 H        -2.9612807104       -1.5793017459       -0.9569162582
 H        -3.0768820833       -2.9178381765        0.3314750436
 H        -2.1776360202       -1.9774116144       -2.9970761361
 H        -3.6242048385       -2.8498899609       -2.5747403128
 H        -2.6484844741       -3.4952441244       -3.8536753663
 H        -2.9303943272       -5.3459043677       -2.4409247305
 H        -1.7733624239       -5.6823460366       -1.0503635942
 H        -3.1812307064       -4.6478378472       -0.8807273245
 H        -2.5363027628       -0.6868689824        1.5579210621
 H        -0.8966917530       -1.2850481824        1.1922866940
 H         1.3407870163        2.2725986182        2.2095624806
 H         1.2314655654        0.5751938452        2.5850894571
 H         0.1288812113        3.2951494561        0.1930364374
 H        -1.6105926316        3.1669166152       -0.4444888406
 H        -0.3760030496        2.5255128101       -1.4327641692
 H        -0.4588531259        2.3230518205        2.6539796365
 H        -2.0071918546        2.5065999205        1.9817107389
 H        -1.4920872772        0.9166816979        2.4674117447
 H         3.3259689792        0.3262302071        0.9810230656
 H         3.6720679819        1.0999606175        2.5060424566
 H         2.8725652233        3.3961525959        3.9986179130
 H         3.5180374316        4.9971871539        4.0195137856
 H         5.8579189947        4.1263384052        2.5165199576
 H         6.1088983554        2.6953410820        1.6567198367
 H         5.0687051686        2.8710026217        3.1947048370
 H         5.7218983916        4.3919829914       -0.4412479611
 H         4.0102488870        4.5892854473       -0.6940994746
 H         4.9529286700        5.6273302447        0.4072984742
 H         1.4976716881        5.9878783355        3.5131749659
 H         0.7872710197        4.2191545014        3.2602059668
 H        -0.7578418134        2.5361777593        5.9131762286
 H        -0.8950033311        2.8694501427        7.5357407388
 H         1.3997156611        5.8402721962        7.3112209660
 H         0.5109389852        4.5843930077        8.0729829575
 H        -0.1949257458        6.3411111763        7.8114286752
 H        -0.5573728852        6.4031864871        4.3717676443
 H        -1.3573107131        7.1564060264        5.7913585762
 H         0.4379582017        7.1924088944        5.6551153668
 H        -3.5039447779        2.8940261959        6.4019768311
 H        -2.8624395135        1.7563061503        7.5711333318
 H        -3.8095762087       -0.5866919754        2.6763837835
 H        -4.4585390922       -1.9734332149        3.7111024225
 H        -2.7039840181       -1.1239974896        6.9958744622
 H        -2.7044660567       -1.5881592028        5.3322655997
 H        -3.9281055333       -2.2492818558        6.2917883675
 H        -5.5440411816        1.3622613553        6.6444787388
 H        -5.8126190011       -0.3507362655        6.8578407618
 H        -4.6490434161        0.4758323753        7.8609314985
 H        -6.0720666811       -2.0668360228        1.9415188066
 H        -6.7989003457       -0.7567803218        2.7615535162
 H        -4.7140301223       -0.5250235243       -2.6094789626
 H        -5.5298041897       -2.0304185159       -2.9244837231
 H        -6.4791305985       -0.5984111988       -2.8282987401
 H        -8.0252129019       -1.4216945643        0.4994635511
 H        -8.5348424448       -0.6437343199       -1.0228652177
 H        -8.5049467666        0.2705231873        0.4099024773
 H        -6.8773549775        1.0795135764       -1.9250179771
 H        -6.9657579568        2.0456508003       -0.4308929305
 H        -5.4657493737        1.6655540829       -1.2298243754
 Na        0.5098406445       -0.9476437986       -2.4904091522
