155

 C         4.6436252704       -0.1545075187       -4.3796335975
 C         3.1849041358        0.0503990991       -4.0074048175
 C         2.2922539640        0.9513393630       -4.9777113302
 C         1.2467297186       -0.2808471224       -5.6108078084
 C         1.3955315444       -0.7760783885       -7.0252258986
 C         1.5111561725        2.1121348737       -4.1935408164
 C         2.9954580763        1.7083919340       -6.1068281146
 O         2.7205280434       -0.5136547787       -3.0419162759
 O         0.5443980580       -0.8092521918       -4.8042949250
 C         1.1782857790       -2.2764131782       -7.0990986981
 C         2.3198790617       -3.0237706981       -6.4008809082
 C         2.2237845384       -4.5944584782       -6.3752249799
 C         0.9787082812       -5.0771591882       -5.4760600706
 C         1.4088682712       -5.6164336522       -4.0665980355
 O         3.2939417196       -2.5002974091       -5.8862657375
 O        -0.1557470833       -4.9532487166       -5.8717108702
 C         1.9246788761       -5.1396875374       -7.8894430765
 C         3.5286751326       -5.1111025763       -5.8256183725
 C         0.2120022005       -5.6852020256       -3.1891634025
 C        -0.2625169037       -4.1740169263       -2.8854609624
 C        -1.6737960694       -4.1269975298       -2.0976405757
 C        -1.3114392943       -3.2371874431       -0.8256729665
 C        -2.3658015180       -2.2349339083       -0.3422797777
 C        -2.6790866705       -3.5486629151       -3.0694358025
 C        -2.2264703673       -5.4717050860       -1.5911356851
 O         0.3683548551       -3.1415841577       -3.1546146343
 O        -0.3640271218       -3.4506589206       -0.1561357526
 C        -1.6845651447       -1.0551144108        0.4746026878
 C        -1.3494732126        0.1127328730       -0.3679447566
 C        -0.6607181117        1.2636312690        0.3256534267
 C         0.8375431557        0.9163399206        0.4618878377
 C         1.6647378481        1.3556653602        1.6661080626
 O        -1.4306198751        0.1234286522       -1.6288593660
 O         1.3243369762        0.2451883238       -0.4633390152
 C        -0.8551861023        2.6059149237       -0.4425722441
 C        -1.2451255438        1.5620716226        1.7694147741
 C         3.1895087634        1.3964800376        1.4484232876
 C         3.5923855109        2.5794058398        0.5831647054
 C         4.2301374129        3.8503791792        1.3566573779
 C         3.0089949654        4.6880261343        1.9382764425
 C         2.7288876328        4.5590142639        3.5038571009
 C         5.1631288854        3.5150182041        2.4648896847
 C         4.9473316225        4.7047988660        0.2608493210
 O         3.4002704563        2.5098057763       -0.6070748440
 O         2.1481177456        5.0983036913        1.1879228667
 C         1.5582938592        5.2860184744        4.0743290085
 C         0.6877935841        4.4311333596        5.1217506042
 C        -0.4650084565        5.2658269034        5.9237030378
 C        -1.7698123291        4.3651464526        5.8302242873
 C        -1.6897351940        2.8498700942        6.3146301691
 O         1.0789353102        3.2891544865        5.3017445080
 O        -2.7095908170        4.7638185297        5.1830271222
 C        -0.0078592212        5.4018281227        7.4707814013
 C        -0.6662789014        6.6596707979        5.3135070640
 C        -3.0354100280        2.2094728302        6.3021747243
 C        -3.1361493884        0.7735130763        5.6639050954
 C        -4.2829698155       -0.1821916818        5.9111694490
 C        -5.0468127883       -0.1315642303        4.4828852441
 C        -4.4588952586       -0.9885288790        3.3631851524
 C        -3.7094817980       -1.6307354315        6.1962305369
 C        -5.2614540556        0.1295489113        6.9928375681
 O        -2.1856709636        0.4606771143        4.9581880997
 O        -5.9806828369        0.6230699679        4.3962976943
 C        -5.3603880985       -1.0639739615        2.1202546245
 C        -5.3509926563        0.0798702087        1.1435867227
 C        -6.4104273091        0.0059910944        0.0157051108
 C        -6.0174378577       -1.1818767831       -1.0787940962
 C        -6.1298204456       -0.7031015086       -2.5346647513
 O        -4.5406479880        0.9808032006        1.1844496182
 O        -5.6757673990       -2.2759342334       -0.7041539689
 C        -7.7751806263       -0.3916253239        0.5707720418
 C        -6.5653346190        1.3935147323       -0.6229872696
 H         4.7603656826       -1.1708320154       -4.7889518753
 H         5.0631809129        0.5753812502       -5.1108987138
 H         5.1323325326       -0.1548899913       -3.4373039343
 H         0.5329664683       -0.2988175575       -7.5212488367
 H         2.4204758225       -0.4267077577       -7.3825819508
 H         0.6864177411        1.8415031123       -3.4616185153
 H         0.9522415182        2.7431717473       -4.8738995728
 H         2.2268879623        2.8204316298       -3.7024584780
 H         3.7920783190        1.2351143105       -6.6610457725
 H         2.3262575870        2.2177428166       -6.8372873261
 H         3.4752507966        2.5609388721       -5.6219732847
 H         0.3086802541       -2.6149318549       -6.6391883697
 H         1.0748527723       -2.6795976971       -8.1158085832
 H         1.9427783624       -6.5540195372       -4.0694975996
 H         2.0812649570       -4.8843282896       -3.6010114167
 H         2.5253781788       -4.4707744062       -8.4901735829
 H         0.9193127587       -4.9886966518       -8.0325551531
 H         2.1588751691       -6.2240288421       -8.0677696416
 H         3.5857975534       -6.1994359864       -5.6626966432
 H         4.2702748229       -4.9744816755       -6.6362460147
 H         3.9033065290       -4.5903161211       -4.9427643530
 H         0.3156661328       -6.2452351647       -2.1823710391
 H        -0.5542202656       -6.1798592122       -3.7730741533
 H        -2.9518425105       -1.8246250557       -1.1855761817
 H        -2.9762283245       -2.8327460645        0.3479484072
 H        -2.3112789375       -2.6195256278       -3.5091092271
 H        -3.6260040648       -3.2102506608       -2.5393788425
 H        -2.9656871122       -4.3360021352       -3.7321973762
 H        -2.5059058215       -6.2491082229       -2.2703675690
 H        -1.4782963201       -5.9809865945       -0.8965328139
 H        -3.0700017609       -5.1516420253       -0.9663141857
 H        -2.3579371870       -0.7332583682        1.2986332892
 H        -0.8207182391       -1.4768986914        0.9323086823
 H         1.1960519309        2.1920499804        2.0660662193
 H         1.3756485577        0.6850220538        2.4254395037
 H        -0.4015858138        3.4121737600        0.2272991224
 H        -1.9325339767        2.7825000396       -0.4128476680
 H        -0.4158816552        2.6033740428       -1.5159488038
 H        -0.7548044949        2.5247015998        2.1683039009
 H        -2.2968559191        1.7470431531        1.8538628713
 H        -0.9174306795        0.7455990959        2.3844521917
 H         3.3679083744        0.4790500189        0.9598407155
 H         3.7265435016        1.1762092028        2.3718241449
 H         2.5661778550        3.5019286873        3.7793198306
 H         3.6334509681        4.8424095871        3.9852938372
 H         5.4987732643        4.4780605114        2.9478387816
 H         6.0853668881        3.0163598885        2.1540498721
 H         4.7184605761        2.8103553467        3.2610236193
 H         5.4003277664        4.1112582842       -0.5803664645
 H         4.2105242821        5.2953024491       -0.2059235237
 H         5.6623251316        5.4208631381        0.5801211020
 H         1.9563798760        6.2605233866        4.5521561834
 H         0.8507629538        5.3497705934        3.2134303169
 H        -1.1713772388        2.3164612422        5.5455289801
 H        -1.0989476578        2.7717752534        7.2532189771
 H         0.1717784384        6.4671568944        7.5965345997
 H         0.8456609383        4.7481724842        7.7934029538
 H        -0.9329466971        5.1154767024        8.0145406374
 H        -0.8888516709        6.4111449364        4.2898898179
 H        -1.5191047246        7.2469636106        5.8101576997
 H         0.2564867506        7.1909689709        5.3030399459
 H        -3.7934711720        2.7930790726        5.8458284061
 H        -3.3400755841        2.1717801119        7.3726652964
 H        -3.5171588148       -0.3624945206        3.0653482375
 H        -4.1626534264       -2.0325237632        3.6241649038
 H        -3.6588906167       -1.8004561243        7.2701530979
 H        -2.7227419308       -1.6683929330        5.7230177847
 H        -4.2493973038       -2.4534279053        5.7813086396
 H        -5.8429555517        1.0813179872        6.8713660565
 H        -5.9119461476       -0.7859377771        7.0584404448
 H        -4.8939532284        0.2686108925        8.0104054357
 H        -5.0812287071       -1.9724312323        1.6574425376
 H        -6.3177685730       -1.3449956802        2.4227803240
 H        -5.4784836860        0.1048656931       -2.6854863952
 H        -6.0338937260       -1.4468520691       -3.3649816324
 H        -7.1456713903       -0.3944471148       -2.6036240128
 H        -7.7547225590       -1.4516881879        0.6264751789
 H        -8.5735229219       -0.0531774612       -0.0822336689
 H        -7.8677180216       -0.0302773504        1.5956162058
 H        -7.1561299116        1.1803122047       -1.5234168630
 H        -7.0836032771        2.1108795504       -0.0721857660
 H        -5.5764455922        1.9156926694       -0.9139996659
 Na        0.4369776545       -0.9199411515       -2.3982040778
