155

 C         5.8243890585        1.2890407800       -2.9706525595
 C         4.5142547164        0.6027784760       -3.1521731927
 C         3.3438846516        1.1846803215       -4.2781542308
 C         2.7667354363        0.0555177744       -5.1490812775
 C         3.3972367143       -0.1992569783       -6.5181882787
 C         2.2401935286        1.9097630096       -3.4777053974
 C         3.9398886373        2.2543898984       -5.2252961496
 O         4.0837136460       -0.2471498503       -2.4113106270
 O         1.9763267013       -0.7445961186       -4.7684852520
 C         2.8787933694       -1.4970941714       -7.0675518914
 C         3.3749388233       -2.7782092265       -6.4286266156
 C         2.6518017530       -4.2040099325       -6.7624988339
 C         1.7899649340       -4.4342145961       -5.3792468118
 C         2.6232151159       -5.0398801881       -4.2149025131
 O         4.3594032913       -2.8144848306       -5.7610991275
 O         0.6422415431       -4.0807951411       -5.3798699022
 C         1.7246078041       -4.1574072289       -7.9558360556
 C         3.7369035938       -5.3138146912       -6.8436148138
 C         1.7737323736       -5.5276062341       -3.0705037917
 C         0.9564652123       -4.3582137787       -2.2416066731
 C        -0.5981742356       -4.7402692311       -1.8475128637
 C        -1.1107399518       -3.6221487295       -0.7532392095
 C        -2.3305495145       -2.8658188592       -1.0242350961
 C        -1.4743838171       -4.7942263912       -3.2168202882
 C        -0.5234067642       -6.0813661122       -1.1636142558
 O         1.4078690999       -3.3023600374       -1.9512840692
 O        -0.4377387710       -3.5436290725        0.2398474701
 C        -2.4262995881       -1.3848680544       -0.4439136892
 C        -1.1633354284       -0.6194470373       -0.8001416990
 C        -0.8048289125        0.6735518621       -0.0837721604
 C         0.7295529441        0.9717824724       -0.0491604030
 C         1.2294842493        1.9613129951        1.0438702151
 O        -0.4576519407       -1.0074244928       -1.7235929507
 O         1.5687127493        0.4235316052       -0.7280777833
 C        -1.3753506675        1.8215113386       -0.9962800072
 C        -1.4004273660        0.7657815005        1.3245718463
 C         2.7485617727        2.0698575035        1.3596289334
 C         3.5105685523        3.2602789170        0.6226746548
 C         3.9687234288        4.4893091150        1.3861614358
 C         2.7115857624        5.2390125314        2.1095608987
 C         2.2368850283        4.6888448014        3.4139554531
 C         5.0376974413        4.0655948402        2.4374277835
 C         4.5883402037        5.6200745405        0.4716727731
 O         3.8268677557        3.1284202224       -0.5250321270
 O         2.1302154062        6.1034285638        1.4670781897
 C         0.8018786514        5.1414100354        3.8314725795
 C        -0.1774885433        3.9591162726        4.1468066398
 C        -1.6279252179        4.2531784368        4.4387129830
 C        -2.5984416040        3.1821622491        3.5908995138
 C        -2.8665245781        1.7473611459        4.2060676189
 O         0.1679333708        2.7913732282        4.1150803039
 O        -3.0668444310        3.5721878772        2.5015042725
 C        -1.7333570690        4.0849281748        5.9813801386
 C        -2.1088724312        5.6504961725        4.1402230148
 C        -3.8631756709        1.6084253924        5.4696662983
 C        -3.9298280154        0.1352705094        5.9873672973
 C        -5.2882301269       -0.5214008650        6.2776917421
 C        -6.1388374708       -0.5322337971        4.8492417540
 C        -5.7330864631       -1.6410758247        3.7769095289
 C        -5.0856761209       -1.9820905047        6.7755748683
 C        -6.1468673823        0.2041519953        7.2858597797
 O        -2.9410932094       -0.6282187307        6.0411262246
 O        -6.9052711218        0.3492344455        4.5771564051
 C        -6.5482324486       -1.4284982541        2.5013095456
 C        -6.1280797303       -0.1214304233        1.7488209789
 C        -7.2172184987        0.7899835442        1.0047262910
 C        -7.3430469160        0.2735325209       -0.5663160842
 C        -8.3561864312        0.8738827389       -1.4741415004
 O        -4.9167729798        0.1402212233        1.5813811457
 O        -6.5663505259       -0.5652661888       -0.8678811489
 C        -8.5661624595        0.7057727487        1.8364235562
 C        -6.7314882984        2.2426885725        1.0820553779
 H         5.7446723032        2.2618077500       -3.6037808681
 H         6.0382797640        1.4372479755       -1.9179157426
 H         6.6074417153        0.7419899933       -3.4809858292
 H         3.0336809238        0.6591563499       -7.2163052687
 H         4.5139163105       -0.1951552246       -6.4106553949
 H         1.8700114273        1.4349905800       -2.5436760001
 H         1.3879995718        2.1049942276       -4.1371565260
 H         2.5745868407        2.8475232589       -2.9619959705
 H         4.5447959217        1.8756798155       -6.0475044267
 H         3.0933926968        2.5496525914       -5.7156996558
 H         4.2672673839        3.1226237682       -4.6652339505
 H         1.7699128146       -1.2911510021       -6.8197207349
 H         3.1179680928       -1.5025507342       -8.1645495484
 H         3.1787447271       -5.9570467443       -4.5238217879
 H         3.3375521429       -4.3040108545       -3.9670285330
 H         2.2299331064       -3.7245077938       -8.8358484382
 H         0.7859151575       -3.5435827242       -7.7915340366
 H         1.5095107848       -5.1516270530       -8.2889227670
 H         3.3614254323       -6.3118499985       -6.9133908061
 H         4.4676242568       -5.2045183312       -7.5775822411
 H         4.3669387423       -5.2738183002       -6.0240550411
 H         2.3029361010       -5.9374850790       -2.2368469432
 H         0.9570213744       -6.2040836641       -3.4815200608
 H        -2.4840396337       -2.6604265610       -2.0547689582
 H        -3.2168492054       -3.4239382430       -0.6813590907
 H        -1.3829527579       -3.8483683042       -3.7319414729
 H        -2.5009191796       -4.9413204407       -2.9632229656
 H        -1.0985880879       -5.5407636523       -4.0170796646
 H         0.4001660019       -6.5965592905       -1.3701431887
 H        -0.5090062014       -6.0486081136       -0.1327199473
 H        -1.3371253153       -6.6155665432       -1.5821021742
 H        -3.3002134349       -0.8726765971       -0.8766178700
 H        -2.5520287541       -1.3756549996        0.5977607401
 H         0.9185333439        2.9603496117        0.6817247654
 H         0.7106869445        1.6780135665        1.9780321627
 H        -1.1395380244        2.8600026533       -0.6930736677
 H        -2.4404521289        1.8154399809       -1.0782193854
 H        -0.7500975054        1.7869632272       -1.9480442419
 H        -1.3572832528        1.7579591646        1.6469038339
 H        -2.4059078699        0.3717709947        1.2900248147
 H        -0.9614503270        0.0662913491        2.0532119150
 H         3.3390920522        1.1188106075        1.1228618918
 H         2.9278092218        2.2126829041        2.3779802433
 H         2.1740413537        3.5766840957        3.3666099063
 H         2.9233558617        4.9792882819        4.1821834168
 H         5.8319730106        4.7716192897        2.3080501363
 H         5.4661439633        3.1119061749        2.2425895393
 H         4.6761333373        3.8240178050        3.4692665594
 H         5.4021704805        5.1899621852       -0.0552902941
 H         3.8877920606        5.8406803318       -0.2563609673
 H         4.7500905182        6.5487810506        1.0680697218
 H         0.7383676664        5.8231493423        4.6820228851
 H         0.2872053244        5.8457427156        3.1791121848
 H        -3.1971347394        1.1395767904        3.3755887741
 H        -1.8538445239        1.2481028619        4.4984397413
 H        -1.2141234997        4.8818048802        6.4447735521
 H        -1.3631717197        3.1440405092        6.3240273980
 H        -2.6825821799        4.0578856206        6.4771492842
 H        -2.2955894082        5.7208582064        3.0586837015
 H        -3.0078937923        5.7880505713        4.6418493726
 H        -1.4154711471        6.4741009445        4.3888691076
 H        -4.8003143660        1.9676671633        5.2005495720
 H        -3.5243151357        2.2091248637        6.3002142852
 H        -4.6123019803       -1.5067192740        3.6982994905
 H        -5.9685096482       -2.5973750744        4.2320335854
 H        -4.5875223282       -1.8354440336        7.7520147927
 H        -4.5013355084       -2.6603794343        6.1928698464
 H        -6.1630998791       -2.2706664841        6.9937210378
 H        -6.3935991784        1.2589957518        7.0728740469
 H        -7.1810263451       -0.2034423444        7.4765938651
 H        -5.7573727131        0.3763570785        8.3222332551
 H        -6.3384169632       -2.1998192687        1.7595704808
 H        -7.6078040047       -1.5485351404        2.8175959352
 H        -8.7648148946        1.7139168508       -1.0514412721
 H        -7.9905650178        1.2017168693       -2.5126209915
 H        -9.1074223087        0.1254661279       -1.7790686664
 H        -9.0493911596       -0.1647668585        1.5374639394
 H        -9.1460174942        1.4684541609        1.3531145513
 H        -8.3515772983        0.7369876148        2.9039109042
 H        -7.4846680821        2.9999745034        0.8158506302
 H        -6.3740093227        2.4358523386        2.1073975097
 H        -5.8654713550        2.2125151452        0.4205749254
 Na        1.9134115173       -1.1151308477       -2.4635461842
