155

 C         5.9903715258        1.2391148485       -3.0616671732
 C         4.4858518543        0.6255302473       -3.1993980038
 C         3.4573213194        1.3166830172       -4.2852085315
 C         3.0108421288        0.0679213889       -5.1390127588
 C         3.5816414142       -0.2469206622       -6.5477366261
 C         2.3008650590        1.9611146326       -3.5569052912
 C         4.2724339078        2.3841050921       -5.0586965793
 O         4.1051447887       -0.3162709738       -2.5537940387
 O         2.1807193125       -0.6577784288       -4.5887908921
 C         2.9980000543       -1.6393538876       -7.1212883198
 C         3.5318877963       -2.8865961523       -6.5051082767
 C         2.7730799878       -4.1708552718       -6.7862906487
 C         1.9704908135       -4.4987008372       -5.4080587266
 C         2.6944301398       -5.0831176146       -4.2042343566
 O         4.5157251060       -2.7344362436       -5.7664087146
 O         0.7940594543       -4.1379564139       -5.3403650893
 C         1.7370171427       -4.0133582885       -7.9285928730
 C         3.8947665033       -5.2141651703       -7.1560247299
 C         1.7872127321       -5.5833991558       -3.0897475319
 C         1.0607454267       -4.3928790832       -2.3356159586
 C        -0.4496097476       -4.7698834940       -1.7992988815
 C        -1.0060930927       -3.6282615223       -0.8879817756
 C        -2.2141199173       -2.8764400741       -1.2130358370
 C        -1.3042504297       -4.9658723214       -3.0356266195
 C        -0.4010163393       -6.1305702165       -0.9542780324
 O         1.6523248347       -3.3498145778       -2.1264444527
 O        -0.5144249064       -3.3715291627        0.1985675383
 C        -2.2151701080       -1.5877397162       -0.4137173474
 C        -1.1118948347       -0.6121426915       -0.9014077065
 C        -0.7992145520        0.7660451323       -0.0855550678
 C         0.7134353454        1.0574221322        0.1405094755
 C         1.1431020565        2.1442968895        1.0812564257
 O        -0.5193468041       -0.8749688306       -1.9318517223
 O         1.6263376747        0.3900041308       -0.3545889474
 C        -1.1498247533        1.9588835389       -0.9488410486
 C        -1.6073154197        0.9206969298        1.2119904715
 C         2.6700680357        2.0493677470        1.3203730163
 C         3.3494548457        3.1953620941        0.6391847308
 C         3.8228152542        4.4838248907        1.3554757998
 C         2.6503609813        5.2514537420        2.1500727164
 C         2.0823926592        4.7249169736        3.5007784481
 C         4.9266238297        4.0822967852        2.4238847116
 C         4.4330492537        5.4561308163        0.3085550736
 O         3.6762580691        3.0200088116       -0.5666965952
 O         2.0679364290        6.2066329506        1.6929923208
 C         0.5658006260        5.0697183346        3.6078961279
 C        -0.3192810028        3.8822249996        3.9370072092
 C        -1.7769766749        4.2109826650        4.3883116352
 C        -2.7258483384        3.0782580654        3.7097838081
 C        -3.2010350944        1.7538009875        4.4012983267
 O         0.1303246622        2.7605852934        3.9591145898
 O        -2.9408372790        3.2499532807        2.5623678920
 C        -1.8329162623        4.0536069939        5.9417733092
 C        -2.2454218702        5.6557979189        3.8776508733
 C        -3.8451058812        1.5806785547        5.7678206915
 C        -3.9964200958        0.0070976723        5.9775816904
 C        -5.3549901289       -0.5837726085        6.2875438999
 C        -6.2093691166       -0.4597668880        4.9178916264
 C        -5.9527090344       -1.6110009977        3.8812906845
 C        -5.2092807152       -1.9941884361        6.8021521537
 C        -6.0644718614        0.2375700625        7.2740079196
 O        -3.0129897363       -0.6057315283        5.8089796470
 O        -6.9994549958        0.4406503312        4.7854348505
 C        -6.7969042390       -1.3946928425        2.6405737869
 C        -6.2349879325       -0.2203265952        1.8142781064
 C        -7.2128346057        0.7308108786        1.0918068858
 C        -7.3744878957        0.3163246837       -0.3986917936
 C        -8.4047601721        1.1257653760       -1.2787393036
 O        -5.0745071661       -0.1616083289        1.5592510793
 O        -6.6424766098       -0.5381486355       -0.9375396682
 C        -8.6869167595        0.8871088960        1.6630860508
 C        -6.5609761630        2.1416615045        0.9627191477
 H         6.0762382552        2.2909104264       -2.9461849557
 H         6.3860012569        0.7931746665       -2.1620292822
 H         6.6361426522        0.9612524709       -3.8928444503
 H         3.2608546556        0.5478651718       -7.1573824409
 H         4.6486169839       -0.3707241092       -6.4481821020
 H         1.5176253177        1.3281878707       -3.4052168229
 H         1.9617772266        2.8711988835       -4.1007243654
 H         2.4604928823        2.1222640657       -2.5212762701
 H         5.2578954485        2.0148018219       -5.2709913877
 H         3.7803925265        2.6684130282       -6.0747845479
 H         4.2208445639        3.1902432600       -4.3522931889
 H         1.9509669043       -1.5437772331       -7.0330743491
 H         3.3294792887       -1.6113854507       -8.1784696796
 H         3.2851501816       -5.9231396405       -4.5173046245
 H         3.4138783323       -4.2778763083       -3.8536810022
 H         2.1668792654       -3.6173563338       -8.8255189404
 H         0.9771869284       -3.3331595583       -7.6338717216
 H         1.3118366784       -4.9719389891       -8.2259063778
 H         3.5270941384       -6.2403558686       -7.1798974553
 H         4.1455671646       -4.9710805894       -8.2235128839
 H         4.9376852729       -5.2539463600       -6.6993548631
 H         2.2176665615       -6.1412980044       -2.2724902852
 H         1.0039572338       -6.1084307940       -3.5569617325
 H        -2.3280252617       -2.6073859727       -2.2967779775
 H        -3.1093687389       -3.3819591628       -0.8492905663
 H        -1.2504427695       -4.1542088419       -3.7446685063
 H        -2.3063818069       -5.3053060900       -2.7623315268
 H        -0.8592097911       -5.7031093646       -3.5884263768
 H         0.3220188047       -6.8492953168       -1.3866780605
 H         0.1374261479       -5.7246265157       -0.0487307700
 H        -1.4008727919       -6.6172275822       -0.8072528134
 H        -3.1578690009       -1.0870504697       -0.6480470429
 H        -2.2080482638       -1.8233018403        0.6977844418
 H         0.8402063798        3.1205878733        0.5849914163
 H         0.6120620377        2.0368774110        2.0607363473
 H        -0.9501729938        2.8848206476       -0.3856569624
 H        -2.2600320065        2.0506799399       -1.1191174157
 H        -0.4987523090        2.1375328016       -1.7771740066
 H        -1.3621543941        1.9332137051        1.5662097764
 H        -2.6608608036        0.6168462372        1.1341802940
 H        -1.2367655482        0.2071620769        1.9303175545
 H         3.0908957159        1.1273318164        0.9249698190
 H         2.9124357819        1.9149295916        2.4401034112
 H         2.0804614356        3.6832018799        3.7389395955
 H         2.5787606907        5.2914436420        4.3158022909
 H         5.3823271017        4.9321394547        2.9864499377
 H         5.8176526619        3.5052268112        1.9846325467
 H         4.4958424975        3.2862470868        2.9602338030
 H         4.9323665639        4.8192500683       -0.4178842646
 H         3.6439417620        6.0689345830       -0.2450751600
 H         4.9660036349        6.1764471587        0.8528823680
 H         0.3807235959        5.6814631426        4.5096235454
 H         0.1530022624        5.7905488369        2.8557702484
 H        -3.9023792205        1.3602691210        3.6108940028
 H        -2.4016757146        1.0952265840        4.3595698179
 H        -1.1753290492        4.7206483173        6.5220762790
 H        -1.7501572663        3.0653513022        6.3752669439
 H        -2.8284058505        4.2923079515        6.3381164790
 H        -1.8909606593        5.8903311481        2.8623313118
 H        -3.3673821839        5.7666057778        3.9431421600
 H        -1.8108920149        6.4347988537        4.4903062512
 H        -4.8445564816        2.1240095531        5.7953117190
 H        -3.2519451643        1.9950062959        6.6412258505
 H        -4.9471030855       -1.3812331005        3.6304321332
 H        -6.0473929685       -2.5997289508        4.3455762329
 H        -4.5581895415       -2.0273231495        7.6421732392
 H        -4.6244465581       -2.4920163314        5.9941536515
 H        -6.1540988148       -2.3771506988        6.9362463414
 H        -6.4507245666        1.1872882894        6.9708526265
 H        -6.9763501077       -0.1934234010        7.5459860742
 H        -5.6016671452        0.4780445014        8.1951005807
 H        -6.7994757684       -2.3288335702        1.9706774057
 H        -7.8479228001       -1.2563305637        2.9291471039
 H        -9.0164393035        1.9008963017       -0.7221338896
 H        -7.8991628026        1.7005732637       -2.0253460957
 H        -8.9822539052        0.5191012619       -1.9473089963
 H        -9.0886787803       -0.1819543139        1.6878771263
 H        -9.2822395674        1.6183739250        1.1469941385
 H        -8.4316159494        1.0301445496        2.6783826768
 H        -6.9505049895        2.7352826661        0.1445571652
 H        -6.8976053751        2.6527763196        1.8843027884
 H        -5.5088418580        1.9960967400        0.8671039894
 Na        1.8051055002       -0.9552932423       -2.3459154748
