155

 C         1.6523378493       -0.1880786118        4.0224091680
 C         1.9334794161        0.3250055162        2.6333490864
 C         2.0335715297        2.0449642915        2.6388816189
 C         3.4291569295        2.4399208941        2.2552145531
 C         4.2685082652        3.3654495676        3.1168569796
 C         1.0573590625        2.5449013949        1.5599170377
 C         1.5547366183        2.6045087176        4.0689229534
 O         2.1387353245       -0.3092407490        1.6855558434
 O         4.0671965837        1.9000611118        1.3026624742
 C         5.7371650091        3.4860743850        2.8249068248
 C         6.5769620183        2.3366388231        3.6088852014
 C         8.0326413705        1.9444329676        3.1670824138
 C         7.9128923403        1.5781919715        1.7050757055
 C         7.6799733009        0.0146471605        1.3956088821
 O         5.9524652195        1.7183223073        4.4748234009
 O         8.0272301459        2.3487745804        0.7976719542
 C         8.8345671675        3.2085784145        3.2660931966
 C         8.3698449568        0.7939110690        4.1209230613
 C         7.6748254594       -0.2799478987       -0.1078044870
 C         6.2476032920       -0.3762344922       -0.7170364829
 C         6.3355208575       -0.7172441685       -2.2159770185
 C         5.0416494111       -0.0016581898       -2.9141038296
 C         5.1648535566        1.3106011074       -3.6337302305
 C         7.6106476706       -0.3270005939       -2.9823505319
 C         5.9826098717       -2.2696036371       -2.4027152399
 O         5.2288598751       -0.2448853388        0.0079906230
 O         3.9632182728       -0.5560053262       -2.6889680559
 C         3.8311828969        1.6823511219       -4.2723627718
 C         2.6912422464        1.8137995970       -3.3604266563
 C         1.2100699044        1.2206939425       -3.8290842364
 C         1.2051643909       -0.1352796196       -2.9890175429
 C         1.1651930077       -1.4531068900       -3.8357730590
 O         2.8068704163        2.2604771247       -2.2427878751
 O         1.1645231976       -0.0813953760       -1.7454458224
 C         0.1113255309        2.2305447842       -3.2563268055
 C         1.1661317104        1.0469008002       -5.3441852531
 C         0.0467158514       -2.4045191958       -3.5008519261
 C        -1.0885110851       -2.2314007633       -4.4200970798
 C        -2.4616595611       -3.0961738166       -4.1367078287
 C        -3.1360579876       -2.0202492958       -3.2361545971
 C        -3.3868080895       -2.3172460574       -1.7153110615
 C        -3.1860158810       -3.0750606654       -5.5310859710
 C        -2.2854097898       -4.4650063848       -3.5916084512
 O        -1.0839818849       -1.4939169845       -5.3365239501
 O        -3.5747561113       -1.0343492819       -3.7923442424
 C        -3.9766868305       -1.1471306137       -0.9570789273
 C        -3.4095667290        0.2492362285       -1.2492277503
 C        -4.3080220469        1.5734360866       -1.2060462370
 C        -4.9431381876        1.5047483826        0.1607536450
 C        -4.2480498847        2.0290561237        1.4054661002
 O        -2.2315055182        0.3921896830       -1.5229957908
 O        -6.0639881850        1.0437917205        0.3211529716
 C        -3.4030384722        2.7982869266       -1.4781674321
 C        -5.5345822111        1.6329709686       -2.1388229624
 C        -4.9502799885        1.4073317911        2.6264536357
 C        -4.6449123456       -0.1026565290        2.8602904334
 C        -5.3579777934       -0.7647429163        4.0392984784
 C        -6.9332772336       -0.6730716455        3.7612008522
 C        -7.3864965492       -1.6849013657        2.6026721932
 C        -4.9596243908       -2.2003169766        4.3697152678
 C        -5.1265372647        0.1604708735        5.2911351498
 O        -3.8573701335       -0.7373586306        2.1313750816
 O        -7.6552859097        0.1723849461        4.3104743062
 C        -8.8230277986       -1.4238584772        2.1225068417
 C        -8.9384229102       -1.5776372852        0.6413219505
 C       -10.1521096230       -1.0673103071       -0.2007409612
 C       -11.3709978902       -1.8824215214        0.2683809647
 C       -11.6290388149       -3.2831889708       -0.3016137952
 O        -8.0263462542       -2.1086663873        0.0378837370
 O       -12.0668138286       -1.3431936690        1.1321258607
 C       -10.2597843512        0.4049337360        0.1458889353
 C        -9.8883207417       -1.3017587687       -1.7007270140
 H         0.6699238194        0.2070289298        4.3203423822
 H         1.5312679347       -1.2848030092        3.8952749314
 H         2.4281373112        0.0819374484        4.7219036829
 H         3.7788523065        4.3986013575        3.0086166540
 H         4.2200169593        2.9534201299        4.1716342059
 H         0.1431223463        1.9416912302        1.9337933456
 H         1.3187953886        2.2118895193        0.6058525323
 H         0.9262414783        3.6307972434        1.6127840660
 H         1.9524397587        2.0940365112        4.9385301228
 H         1.7802203757        3.6385567007        4.1795954721
 H         0.4020704330        2.5127068750        4.1424537062
 H         6.0744578543        3.5414111759        1.7822484931
 H         6.1746567948        4.4209172276        3.2392425664
 H         8.3890111591       -0.6321072366        1.8364645516
 H         6.7017940909       -0.3095144732        1.7646077193
 H         8.7017593881        3.8356395975        2.3950163293
 H         9.8457247787        2.8346651139        3.1951054251
 H         8.6585276453        3.7819969667        4.1595711541
 H         9.3301181131        0.2805617008        4.1347481272
 H         8.3335469917        1.1665218901        5.1230309701
 H         7.5647190603        0.0351872443        4.0899996608
 H         8.2361543976       -1.1063946391       -0.4695896854
 H         8.0217051820        0.6732158458       -0.6744218893
 H         5.3225333947        1.9861948026       -2.8151482946
 H         5.8916336476        1.1849338076       -4.4141763442
 H         7.4625213736        0.7639471626       -3.0756523213
 H         7.5156896908       -0.8009141216       -4.0111833740
 H         8.6148245447       -0.4204705690       -2.7186986858
 H         6.7037732066       -2.9271851404       -1.9919321448
 H         4.9328250280       -2.5004280501       -2.2709039795
 H         6.1235215091       -2.4725643347       -3.4409296516
 H         3.9193201766        2.7322033257       -4.7093314513
 H         3.6649038629        1.1298965618       -5.2021018615
 H         0.9763327013       -1.2200512698       -4.8337760009
 H         2.0868705417       -1.9929128843       -3.5877584044
 H         0.0908970626        2.0551303222       -2.1887378262
 H        -0.8763853647        2.1059068773       -3.6454942816
 H         0.3499809432        3.1814875716       -3.6300362154
 H         0.3200413750        0.4426351247       -5.7861043181
 H         0.9846877537        2.0352277002       -5.8066614606
 H         2.0829013617        0.5991036732       -5.7701621568
 H        -0.1996001943       -2.1354076699       -2.4615632678
 H         0.2970747593       -3.4848640968       -3.3906116588
 H        -3.8775178034       -3.2382424589       -1.4645659934
 H        -2.4360328624       -2.4741966863       -1.2413242990
 H        -4.1617494363       -3.6323642607       -5.6036965717
 H        -2.4318528068       -3.4202741766       -6.2518519901
 H        -3.3100902415       -2.0517807349       -5.9819692273
 H        -1.4689329010       -4.9064965024       -4.1795735178
 H        -2.1264197285       -4.6372843455       -2.5556714696
 H        -3.2232928545       -5.0147355194       -3.7200331771
 H        -5.0547608503       -1.1651352943       -1.1553255867
 H        -3.8371882302       -1.3245018999        0.1074526145
 H        -3.1629658597        1.8473662429        1.5123202542
 H        -4.2604899251        3.1562802596        1.4196478939
 H        -2.9247527511        2.8397470699       -2.4713717622
 H        -2.4793701876        2.8405366458       -0.8423451148
 H        -3.9582985085        3.7922827541       -1.4638600917
 H        -6.1388611866        0.7281419312       -1.9130479316
 H        -6.0409802348        2.5110760856       -1.8410120365
 H        -5.2607893039        1.6639187577       -3.1763943552
 H        -6.0262427261        1.4334565144        2.3154308373
 H        -4.7301906081        2.0237050958        3.5197164130
 H        -6.5258836842       -1.6147827293        1.8208205552
 H        -7.0210887263       -2.7160242428        3.0089959385
 H        -5.1659065691       -2.9947068840        3.6315157450
 H        -5.3855166180       -2.4773430780        5.2965538998
 H        -3.8379133686       -2.1567192112        4.4155640477
 H        -4.0432619721        0.4034635748        5.2907470182
 H        -5.7048270329        1.0592676719        5.3498458611
 H        -5.3101175853       -0.5574424773        6.0995330064
 H        -9.4396875392       -2.0941501946        2.6852483287
 H        -9.2109679765       -0.5024025838        2.5121707315
 H       -12.3805872496       -3.8213317946        0.3311906780
 H       -11.8464310984       -3.1692105221       -1.3675986347
 H       -10.6731007340       -3.8460692767       -0.2069745117
 H       -10.4927636870        0.4604614853        1.2009093653
 H       -11.2137757555        0.7619623031       -0.3796637703
 H        -9.3565874865        0.8647044568       -0.2067293021
 H        -9.2810849567       -0.5698240777       -2.1943002956
 H        -9.4460651035       -2.2223118715       -2.0016227092
 H       -10.8368200402       -1.2649600092       -2.2722528327
 Na        2.9809941521        0.5124307731       -0.2669006779
