155

 C         0.9011120684       -0.9029906374        3.6636485806
 C         1.4129899545        0.0925842202        2.7410108112
 C         1.2645246091        1.7506342934        2.9776142558
 C         2.7340632321        2.2866149395        2.7303854666
 C         3.2812983401        3.1720021934        3.9372267449
 C         0.2253981790        2.2256155414        1.9585375856
 C         0.7661329753        1.9252366176        4.3971834664
 O         1.8132860096       -0.1572441927        1.6355274171
 O         3.2475598966        2.2170597610        1.6337816863
 C         4.8015370674        3.5595921790        3.6712765398
 C         5.6108313894        2.2419300878        3.7578923069
 C         7.1942284045        2.3857635789        3.6978638119
 C         7.6300953895        1.9715567395        2.3290304627
 C         7.8658828303        0.5039828090        2.0626483655
 O         5.0878744452        1.1818470271        3.6432897021
 O         7.8632219551        2.7930742731        1.4663682167
 C         7.8274774531        3.9038373154        3.8636904373
 C         7.7761994924        1.4251811513        4.7549472793
 C         8.1051002353        0.2436417008        0.5049784602
 C         6.8111348119        0.3236426031       -0.2656279111
 C         6.8791617144       -0.3190400903       -1.7790242797
 C         5.6304726741        0.1062988833       -2.4527759772
 C         5.5006117000        1.2260418714       -3.5905483166
 C         8.1348751492        0.1620543950       -2.5522860853
 C         6.9668801337       -1.8152150353       -1.6348428287
 O         5.8143473477        0.7747821795        0.2403396060
 O         4.6530771642       -0.6015000907       -2.1276675029
 C         4.1559063864        1.3314278975       -4.1270608500
 C         3.1531640365        1.7810451221       -3.1021118299
 C         1.6588181649        1.6584944858       -3.4716876388
 C         1.3087237839        0.0600960622       -3.1097664990
 C         0.9558525367       -1.0012737485       -4.1978794486
 O         3.5847623527        2.1090096787       -2.0153200730
 O         1.2860226797       -0.1749504310       -1.8904098644
 C         0.8338787604        2.4509668284       -2.5123047058
 C         1.3951691362        1.9920029339       -4.9992405994
 C        -0.5623224676       -1.1756469853       -4.4380266500
 C        -0.9137419108       -2.6628874033       -4.4733114810
 C        -2.4469554665       -3.0501796132       -4.5934032921
 C        -3.3779644786       -1.8253796554       -3.9837506610
 C        -4.1444062642       -2.1318813296       -2.6067246168
 C        -2.8401917363       -3.1523084935       -6.0259713037
 C        -2.5297202912       -4.4852496805       -3.8689698665
 O        -0.0478902648       -3.5281321662       -4.1928676619
 O        -3.4140890480       -0.7631649418       -4.5246628823
 C        -4.8769066832       -0.8963071865       -2.1088332470
 C        -3.9075173986        0.2852891601       -1.8094966115
 C        -4.4800796359        1.7809542411       -1.6443645518
 C        -5.3703032978        1.5864488066       -0.2272127782
 C        -4.6751604366        2.0630063010        1.0422415099
 O        -2.6955026019        0.0909125048       -1.7123381664
 O        -6.5224098841        1.1763692470       -0.2676001375
 C        -3.3097870499        2.7499977007       -1.4448656338
 C        -5.4336119638        2.1015326459       -2.8174034487
 C        -4.8769748654        1.2480462912        2.3564783557
 C        -4.1966560735       -0.0899834650        2.5888840618
 C        -4.7479962058       -0.9589743253        3.7236249010
 C        -6.3055450229       -1.3304798404        3.3155662335
 C        -6.6275336098       -1.9455230084        1.8933210180
 C        -3.8547999728       -2.1753946571        4.0902430198
 C        -4.8516500549       -0.0355383468        5.0089106460
 O        -3.2289830931       -0.4247158276        1.9738872230
 O        -7.2835956721       -1.1612190685        4.0323043895
 C        -8.0351985351       -1.3758879019        1.3680711684
 C        -8.5623454658       -2.1439976725        0.1359121434
 C       -10.0424548728       -1.8027346569       -0.4856704444
 C       -11.1000037248       -1.7099019270        0.7082577011
 C       -12.4837805068       -2.2811373091        0.4006006660
 O        -8.0178865667       -3.1374785060       -0.3247737341
 O       -10.8685092407       -1.1296807998        1.7711152858
 C        -9.9991749330       -0.3930867504       -1.2538182179
 C       -10.3305431182       -2.9098105958       -1.5276402036
 H        -0.1867830877       -0.6103630429        3.6941279262
 H         0.9600457542       -1.8327172025        3.1229783795
 H         1.3031188528       -1.0180058940        4.6940792193
 H         2.5633872437        4.0013377372        4.2422574143
 H         3.1812805439        2.6471727314        4.9168449411
 H        -0.5324137285        1.5010965239        2.1172558120
 H         0.6075890582        2.0456750719        0.9705471091
 H        -0.0074410341        3.3421047447        2.1754503140
 H         1.1582441943        1.4607589366        5.3300709974
 H         0.5980169607        2.9947739289        4.6361725548
 H        -0.2016091288        1.5790655841        4.4011127934
 H         4.8558055105        3.9197442129        2.6397619220
 H         5.0777567812        4.3357210162        4.3680300773
 H         8.7692121504        0.3531872186        2.6959792936
 H         6.9813761676        0.0500104748        2.4509489593
 H         7.4442014316        4.5664009746        3.0281071199
 H         8.8836932848        3.8889424099        3.9120281444
 H         7.4762663172        4.2455079934        4.7997057971
 H         8.8426302120        1.3737428359        4.6618867831
 H         7.6078484518        1.8240314978        5.7746305366
 H         7.3057204340        0.4680533320        4.8133719707
 H         8.6848685029       -0.5876340900        0.2908788766
 H         8.7471572403        1.1005874396        0.2411057380
 H         5.8163218606        2.2027062007       -3.2494621118
 H         6.2958427540        1.0025798430       -4.3824291492
 H         8.1437885016        1.1621597222       -3.0233380118
 H         8.2858849541       -0.6720039647       -3.3075554139
 H         9.0464814435       -0.0338973479       -1.9791786369
 H         7.7209371157       -2.0616818362       -0.9350247823
 H         5.9845358921       -2.0270941113       -1.2072666295
 H         7.0249039819       -2.4636056550       -2.4443165402
 H         4.3217101133        1.9841347390       -4.9971135209
 H         3.8700489562        0.3190171946       -4.4516961247
 H         1.4690042816       -0.7898517684       -5.1535548323
 H         1.2805362363       -2.0534097080       -3.8228698089
 H         0.9381950666        2.0502861183       -1.5537186837
 H        -0.2164049809        2.3408933806       -2.7184546892
 H         0.9971425801        3.5203043723       -2.6677847375
 H         0.3535762882        1.7225102125       -5.3278856826
 H         1.4806563434        3.0417005647       -5.1458850846
 H         2.0556516659        1.4335841168       -5.4844208239
 H        -0.8360950679       -0.6933885908       -5.3789890628
 H        -1.1934911636       -0.7529579906       -3.6469303774
 H        -4.8585909476       -2.9877172841       -2.6161495305
 H        -3.3772301815       -2.3794578016       -1.7845587734
 H        -3.8630166441       -3.6060027994       -6.0588478853
 H        -2.1585365958       -3.7351920042       -6.6964737783
 H        -2.8128321537       -2.2081680382       -6.5814857130
 H        -1.7673938706       -5.0891331242       -4.3313131475
 H        -2.4010493613       -4.4838820567       -2.7323361493
 H        -3.5295952508       -4.9057519577       -3.9504616084
 H        -5.6712587748       -0.6529389863       -2.8149201282
 H        -5.3999072968       -1.0751251002       -1.1480018266
 H        -3.6252867000        2.2214737606        0.8649025774
 H        -5.2365940075        2.9954913631        1.2592398357
 H        -2.6595729134        2.9742493686       -2.3302249699
 H        -2.5620775468        2.3440417349       -0.7118974175
 H        -3.6995068812        3.7405924269       -1.1062707584
 H        -6.2615539080        1.4616589313       -2.8170603796
 H        -5.7220254902        3.2172767833       -2.8258138016
 H        -5.0083022581        1.8459468860       -3.7690661076
 H        -5.9154028802        1.1667939713        2.5497526716
 H        -4.5053125607        1.9228195772        3.0769270482
 H        -5.8606106229       -1.7115935022        1.2494254141
 H        -6.6162734857       -3.0121349101        1.9810716373
 H        -4.1216219071       -3.1659587373        3.6566692003
 H        -3.8794413563       -2.3693959063        5.2242437858
 H        -2.8577772737       -2.0132101594        3.7052579280
 H        -4.1605444776        0.7453172800        5.0137681917
 H        -5.7980545986        0.5063069943        5.0570887353
 H        -4.8406905604       -0.7103392236        5.8287574107
 H        -8.7491046015       -1.5497329420        2.1647852700
 H        -7.8543389807       -0.2905987618        1.0216429613
 H       -13.2111273114       -1.6905610564        0.9996856194
 H       -12.7525368062       -2.0872207900       -0.6337959063
 H       -12.3553300607       -3.3283416521        0.5519737855
 H       -10.2455463069        0.4483519362       -0.5363919876
 H       -10.6945227146       -0.2556850709       -2.0573713407
 H        -8.9696816774       -0.3063206295       -1.7290774993
 H        -9.4047747096       -3.0454080800       -2.1445446605
 H       -10.5181780235       -3.9176354223       -1.0976551152
 H       -11.1219973298       -2.6344750442       -2.1805972785
 Na        3.1668487527        0.6032627928       -0.1457800382
