155

 C         0.6883378005       -1.0833366483        3.6479878235
 C         1.3965719952       -0.1016825149        2.5907300241
 C         1.2205740569        1.4477529904        2.9042242170
 C         2.5707111800        2.2790883030        2.7338661261
 C         3.1378882924        3.3020608656        3.7524526832
 C         0.0893345299        2.1508196582        1.9488319924
 C         0.7942539487        1.6484780125        4.3450512333
 O         1.8192740135       -0.5433369486        1.5029480642
 O         3.1722770506        2.1134685191        1.6389976893
 C         4.6382592216        3.6147998118        3.5964791738
 C         5.5408402223        2.3093536738        3.6144444090
 C         7.1860015362        2.4897527373        3.7319780068
 C         7.7137058681        1.9963879650        2.3799539291
 C         7.9776816540        0.4765402746        2.0596499354
 O         5.1644597209        1.1464547472        3.7131412558
 O         7.9959461724        2.8332741363        1.5218815102
 C         7.4870992316        3.9535458874        4.0980534960
 C         7.5688318644        1.6087307157        4.9567951915
 C         8.1140762740        0.2671132935        0.5680494996
 C         6.7882732880        0.2983370174       -0.2445567709
 C         6.8122219778       -0.2842653849       -1.7200671019
 C         5.5041177123        0.0118246714       -2.4208986150
 C         5.6687998628        1.0270966061       -3.4742570937
 C         8.0863667654        0.3798999449       -2.3614224620
 C         7.0648533440       -1.7887331072       -1.4759259259
 O         5.8416673242        0.8445357232        0.2631784276
 O         4.4584059201       -0.3099263779       -1.9612397246
 C         4.2916599310        1.4540803005       -4.1596344102
 C         3.2490404022        1.7985538168       -3.1066299405
 C         1.7249621086        1.6900709245       -3.4961216756
 C         1.4602823942        0.1627124085       -3.0435040150
 C         1.2663341510       -0.9684654381       -4.0987629757
 O         3.4935932819        2.3091829050       -2.0003748243
 O         1.5186224594       -0.1263982127       -1.8923292726
 C         0.7486058101        2.6687678741       -2.6407233310
 C         1.5092371670        1.9671722804       -5.0188237759
 C        -0.2602395152       -1.2455876160       -4.3132240542
 C        -0.8123378939       -2.7650460874       -4.1428146169
 C        -2.3802693171       -3.0198660246       -4.4906324901
 C        -3.4573376169       -1.9018917756       -4.0039406812
 C        -4.2135264912       -2.1368457373       -2.6913329946
 C        -2.4697852874       -2.9924708624       -5.9661313787
 C        -2.9553333696       -4.3220430498       -3.8700260006
 O        -0.1286775044       -3.7310596478       -4.0561979536
 O        -3.6875860915       -0.9713125055       -4.7967958901
 C        -4.9265768330       -0.8175285168       -2.2748023726
 C        -3.9105377460        0.2493429041       -1.8745395497
 C        -4.5796564150        1.7701343796       -1.5481122629
 C        -5.3564948381        1.5098671895       -0.2619470835
 C        -4.5731404517        2.0102501822        0.9777629230
 O        -2.7435328495        0.1348015044       -1.7512164868
 O        -6.4406302686        0.9464868718       -0.1937964898
 C        -3.3695205119        2.8349159182       -1.3586578486
 C        -5.5806612858        2.2197248365       -2.6286906984
 C        -5.0337887177        1.3700336523        2.3276767135
 C        -4.2910943350        0.0848838531        2.5376422944
 C        -4.7195259767       -0.8864631513        3.6078755410
 C        -6.2605948818       -1.2301222530        3.2548050442
 C        -6.6393873281       -1.7563452836        1.8677282345
 C        -4.0434779053       -2.2388606499        3.4825697304
 C        -4.6741187847       -0.2786131380        4.9208150472
 O        -3.2647291148       -0.1410983483        1.8840074975
 O        -7.0225114939       -1.0858383863        4.1835252371
 C        -8.0497585670       -1.4252964978        1.3510384230
 C        -8.5989021472       -2.3606781324        0.1902931269
 C        -9.9339012038       -1.9026932395       -0.5277936663
 C       -11.0732149891       -1.6842261461        0.5570434496
 C       -12.4695888236       -2.3419679908        0.4181468720
 O        -7.9383159088       -3.3116897606       -0.1434625166
 O       -10.7266312926       -1.1103150428        1.5832174224
 C        -9.7484449523       -0.5633978733       -1.2759406995
 C       -10.3829332741       -2.9861286126       -1.4974853024
 H        -0.3151142788       -0.8996142375        3.8976580960
 H         0.8167619327       -2.1215866852        3.2898696088
 H         1.2454925464       -1.0085374353        4.5479869784
 H         2.4685085764        4.0961467970        3.7673142348
 H         2.9469313016        2.9640365926        4.7357221980
 H        -0.8325571657        1.5791845520        2.1244460291
 H         0.3847726229        2.1086813646        0.8668507085
 H         0.0621527861        3.0725919654        2.3971641763
 H         1.5342142861        1.2291704084        4.9803943198
 H         0.7134390710        2.6718487833        4.6221508641
 H        -0.1679382301        1.1788837638        4.7654418343
 H         4.8049232345        4.0885514934        2.5920886953
 H         4.9107556295        4.2764200231        4.3826050486
 H         8.8467905752        0.2139885252        2.6426989288
 H         7.0284968933       -0.0847042594        2.3166533599
 H         7.0073121648        4.6221595987        3.4361865041
 H         8.6281747333        4.0062495147        4.1181110926
 H         7.1529594493        4.1715837401        5.1716305104
 H         8.6486306129        1.5682098628        5.2027362780
 H         7.1099765142        1.9534526836        5.8787573718
 H         7.0648738904        0.6063628553        4.8819618218
 H         8.7295725606       -0.6732998020        0.4620687246
 H         8.8062915613        1.0613471420        0.2429702742
 H         6.2294502444        1.8292798028       -2.9176264483
 H         6.4495160520        0.6318307175       -4.0807369287
 H         8.0727905038        1.3593027022       -1.9177360151
 H         8.2859838288        0.3887174451       -3.3550607879
 H         8.9588020378       -0.0977817371       -1.8787323067
 H         7.8791983371       -1.8195502848       -0.7113834731
 H         6.1859001274       -2.3740883215       -1.3841454121
 H         7.5025272577       -2.2612075861       -2.3821450309
 H         4.4167471974        2.3741217870       -4.6905653136
 H         3.9898800336        0.6134262353       -4.7663299222
 H         1.6921667114       -0.7083856498       -5.0490878573
 H         1.7337191827       -1.8105695202       -3.7066680663
 H         0.5262887974        2.2132684629       -1.6366820620
 H        -0.2373616564        2.8863569833       -3.0525828325
 H         1.1521603454        3.6398942158       -2.6410043322
 H         0.5664981163        1.5624358057       -5.2186463451
 H         1.4014629145        3.0870274846       -5.0757942757
 H         2.2519919140        1.5779462368       -5.8334955383
 H        -0.5180952538       -0.8520535103       -5.3133646090
 H        -0.9197107786       -0.6838856277       -3.6016058384
 H        -4.8895565685       -3.0020057178       -2.8950565688
 H        -3.5774725581       -2.4598745539       -1.9015125014
 H        -3.4628196211       -3.1445873803       -6.2676257448
 H        -1.9249897890       -3.7033629264       -6.4932507739
 H        -1.9844930637       -2.1176846039       -6.3286322938
 H        -2.1836075719       -5.1091271258       -3.8698755579
 H        -3.3642153635       -4.2570651826       -2.9119852452
 H        -3.7926455535       -4.6534629286       -4.5099894275
 H        -5.3929791782       -0.3728416186       -3.1892375351
 H        -5.7143494983       -0.8042911046       -1.5253168756
 H        -3.5356521873        1.6638746780        0.8604201191
 H        -4.7287586806        3.0592192474        1.0299293850
 H        -3.1775938976        3.1710813602       -2.3519545587
 H        -2.4181828407        2.3680560934       -1.1513960533
 H        -3.5646493537        3.7699033533       -0.8815279737
 H        -6.6193645112        1.7500697544       -2.5718599029
 H        -5.6851797163        3.2443294537       -2.5557112453
 H        -5.2543379352        1.9542516745       -3.6727710109
 H        -6.1402744234        1.2644743464        2.2904542848
 H        -4.7380863643        2.0533947116        3.1540647634
 H        -5.7908317241       -1.5448989333        1.0867375826
 H        -6.5471616605       -2.8841052580        1.9431042645
 H        -4.2097365557       -2.6620349716        2.5210758988
 H        -4.4445189282       -2.9004898113        4.1561714822
 H        -2.9630820778       -2.2313533150        3.5805419197
 H        -3.6196682411       -0.2959244968        5.3526129052
 H        -4.8713616791        0.7885214697        4.8313402224
 H        -5.5307165951       -0.7054254281        5.5047677366
 H        -8.7874100041       -1.4945045410        2.1405629206
 H        -7.9672437400       -0.4795665326        0.9246946777
 H       -13.0588922283       -1.8413614894        1.0912547644
 H       -12.7986411677       -2.1034955402       -0.6098857901
 H       -12.3223472273       -3.4092795791        0.5517458502
 H        -9.4414141731        0.2724138300       -0.6073885461
 H       -10.6900688819       -0.2993388782       -1.8411545786
 H        -8.9650588835       -0.6898701242       -2.0170273372
 H        -9.6465804821       -3.1937624614       -2.2693980817
 H       -10.4033411676       -3.9097002821       -0.8376801939
 H       -11.4277296821       -2.9385506230       -2.0094886383
 Na        3.2038684507        0.7690206573       -0.1451233846
