155

 C         0.7428977266       -1.3200472032        3.3179531536
 C         1.3797115077       -0.2091196299        2.4740758935
 C         1.2722121946        1.2204168931        2.9905094898
 C         2.5680612740        2.0555337481        2.5741391192
 C         3.0891508574        3.1310058385        3.6687286387
 C         0.2192486488        1.8674272179        1.9092779335
 C         0.6746622942        1.4656072642        4.4006553691
 O         1.9868840451       -0.3987395745        1.4364798810
 O         3.0498864467        2.1086718273        1.4944464256
 C         4.4881191303        3.5351522480        3.3244515753
 C         5.4031613969        2.2835302840        3.6779204817
 C         7.0194029301        2.5674356638        3.8808444067
 C         7.6941924687        2.2239985832        2.5646250287
 C         7.7775790479        0.6819914974        2.4257619958
 O         4.9328802631        1.1530827109        3.7548293309
 O         8.0883099156        3.0471304818        1.7949504212
 C         7.3329192278        4.0357380291        4.1263737387
 C         7.5342119888        1.6698536555        5.0053179550
 C         8.0724947838        0.3317483288        0.8799580120
 C         6.7805439081        0.2902713043        0.0077188157
 C         6.9032507274       -0.1921920684       -1.6169106450
 C         5.6150720799        0.1949553795       -2.3279341444
 C         5.6658079045        1.1379674345       -3.5604421351
 C         8.2081314248        0.2665860944       -2.1619160599
 C         6.9353148895       -1.7572636468       -1.6273077448
 O         5.6934513798        0.6754245096        0.3969418385
 O         4.5264287968       -0.3229556745       -2.0034067913
 C         4.3695280528        1.5491140203       -4.1446464094
 C         3.2434560704        1.9597843555       -3.1574925736
 C         1.7235690040        1.6132766752       -3.4936720010
 C         1.5224805768        0.1091174639       -3.0050860682
 C         1.0148405995       -1.0218134271       -3.8044909036
 O         3.4294166303        2.5266701472       -2.1149551235
 O         1.7598176437       -0.1199245932       -1.8055484901
 C         0.8285772584        2.5736237226       -2.6755649615
 C         1.3849545247        1.7446217764       -5.0181553055
 C        -0.5172704069       -1.1212322969       -3.8998169535
 C        -0.9049994084       -2.6719858002       -3.9518004612
 C        -2.3062935557       -2.9864744120       -4.5020657121
 C        -3.4148297289       -1.8593985308       -4.1699232606
 C        -4.1973824616       -1.9553898082       -2.7645816588
 C        -2.1192214458       -3.0563003442       -6.1706065875
 C        -2.6767500588       -4.4102937225       -4.0832589610
 O        -0.1546503025       -3.5533384759       -3.6514004417
 O        -3.7170176750       -0.9870226369       -4.9222229525
 C        -4.9934992898       -0.7159758344       -2.5151037507
 C        -4.0213923323        0.4420746977       -2.0122948515
 C        -4.5799265977        1.8609199556       -1.5895453926
 C        -5.1668601303        1.6228977343       -0.1557267467
 C        -4.6864614560        2.2955895877        1.1551527661
 O        -2.8009528704        0.2056429288       -1.9101497482
 O        -6.0839464919        0.8259294908       -0.1081345384
 C        -3.4674950392        2.8648064633       -1.7116081467
 C        -5.7383187870        2.2162427324       -2.5719634429
 C        -5.1161659424        1.4305954624        2.3366842282
 C        -4.2542439105        0.1626787321        2.4935645690
 C        -4.7994668067       -1.0153400408        3.4418481216
 C        -6.3574644912       -1.2747330497        3.2677275437
 C        -6.6308281003       -1.7172866890        1.8217270492
 C        -4.0139537207       -2.2632147612        2.9630147969
 C        -4.4326772972       -0.6970705499        4.9310796342
 O        -3.2159657592        0.1158335565        1.8816519142
 O        -7.2757073193       -1.0677307151        4.0055608600
 C        -8.0610538899       -1.4779178597        1.4139550486
 C        -8.5508926266       -2.4690729031        0.3836765405
 C        -9.8089728850       -2.0307803931       -0.4054417982
 C       -11.0028182986       -1.6938208813        0.6032779922
 C       -12.4159474931       -2.3800951901        0.3291686110
 O        -7.8484325247       -3.4116159569        0.0879166893
 O       -10.8177678054       -0.8793409545        1.4398024331
 C        -9.5813182261       -0.7625333790       -1.2771536518
 C       -10.1200760406       -3.1625216666       -1.3898937145
 H        -0.3135503015       -0.9271005413        3.2686759628
 H         0.8056269648       -2.3502352611        2.9925317099
 H         0.9372363321       -1.2230822381        4.4039710238
 H         2.2793882384        3.9614435394        3.7330191300
 H         3.0840593200        2.7808283283        4.7580426419
 H        -0.8034359117        1.4832086939        2.0792056237
 H         0.6885013545        1.5746004105        1.0477509893
 H         0.1886174991        2.9766684131        2.1042329610
 H         1.2735234103        0.9973741534        5.2004356493
 H         0.5763957379        2.5505553614        4.6844994155
 H        -0.2841143378        1.0539373513        4.5015920385
 H         4.4735043357        3.8729896188        2.2869260280
 H         4.7275397498        4.4116124039        4.0311496034
 H         8.7230991550        0.5829035981        3.0104960078
 H         7.0076806783        0.1307927560        2.8879992651
 H         7.1441668900        4.5254666321        3.1440327733
 H         8.3019600173        4.1178966195        4.4823502821
 H         6.6210400448        4.4695977083        4.7530479194
 H         8.5789175446        1.9098619225        5.1257602666
 H         7.1185559861        1.9074558934        5.9855988463
 H         7.3598817768        0.6369372146        4.8642992387
 H         8.5273303409       -0.6752274129        0.8879800308
 H         8.9079474667        0.9678275394        0.5396142046
 H         6.2673622251        1.9755908130       -3.2503665489
 H         6.2249152703        0.5815348794       -4.3562889239
 H         8.2835964038        1.3618939425       -2.1403194966
 H         8.2534023895       -0.0715256402       -3.2838155354
 H         9.0481278395       -0.1295532467       -1.6522929446
 H         7.8959249393       -1.9419220181       -1.2046812851
 H         6.0494711707       -2.2788097454       -1.1628494783
 H         6.9060491493       -2.2309498284       -2.6143698112
 H         4.7440724127        2.4948565332       -4.6282936916
 H         4.0803067465        0.7910664393       -4.9044814961
 H         1.5538222239       -1.0294516819       -4.7944251340
 H         1.3428489505       -1.9306171418       -3.1911072219
 H         0.9004478245        2.5180075033       -1.6015961358
 H        -0.2035402314        2.2864645442       -2.9001599960
 H         0.8574373016        3.6418685786       -3.0692815611
 H         0.2624487159        1.7868624645       -5.1587769827
 H         1.9117854967        2.5433330457       -5.4942559379
 H         1.7127193841        0.8442121322       -5.5131182265
 H        -0.9298183361       -0.6193756095       -4.7934103947
 H        -1.0605438333       -0.7148211660       -3.0566902513
 H        -4.8111183826       -2.8255162162       -2.6734872026
 H        -3.5597548289       -2.1349051784       -1.8649020264
 H        -3.0287371943       -3.3183647847       -6.7193133043
 H        -1.5084933838       -3.9597442020       -6.4624391057
 H        -1.5212679836       -2.2450233804       -6.5798293651
 H        -2.1203531822       -5.0734812018       -4.7242082686
 H        -2.3607369161       -4.5602835595       -3.0261522614
 H        -3.7176685314       -4.6531562090       -4.1711331185
 H        -5.4683529624       -0.4203589759       -3.4392552646
 H        -5.7773851272       -0.9456746639       -1.7782138864
 H        -3.5963010649        2.4113146564        1.1963577648
 H        -5.3066774664        3.2401400606        1.2430711688
 H        -3.0264141821        3.0229187645       -2.7340068238
 H        -2.6576184916        2.5977195256       -1.0761965698
 H        -3.9189994382        3.8332496737       -1.5231819499
 H        -6.5080417785        1.4855029349       -2.5750558753
 H        -6.3234920043        3.1875872697       -2.3765129683
 H        -5.3161725065        2.2756608502       -3.5421008716
 H        -6.1702461548        1.1784526150        2.1273866080
 H        -5.0439195720        2.0677490601        3.2405902639
 H        -5.9300671062       -1.3081832427        1.1683952563
 H        -6.4764647862       -2.7800529386        1.6276458599
 H        -3.6759437946       -2.2470558535        1.9125434357
 H        -4.6307714034       -3.1945729810        3.1134482994
 H        -3.1532712737       -2.4069486517        3.6197915591
 H        -3.6734356837       -1.3795809957        5.2243808035
 H        -4.0567422830        0.3463811950        5.0561777723
 H        -5.3439821892       -0.7543062540        5.5140503932
 H        -8.8477011033       -1.6285158383        2.2282519702
 H        -8.1176936800       -0.4446676221        0.9391728789
 H       -13.0241478854       -2.2400310137        1.3080105481
 H       -12.8445932675       -1.8883543935       -0.5310498618
 H       -12.2045983575       -3.4483544194        0.1217523444
 H        -8.9541225302       -0.0953927915       -0.6841341466
 H       -10.5296831941       -0.3247610687       -1.5384072922
 H        -8.9590870630       -0.8543157614       -2.2304294439
 H        -9.2643459075       -3.1758733147       -2.0937569279
 H       -10.3800221920       -4.0873759068       -0.9486742037
 H       -10.9559302693       -2.8977050983       -1.9306753622
 Na        3.1934188373        0.7328369523       -0.2791394477
