155

 C         2.9199904189       -2.0993519428        4.3337740436
 C         2.3932455513       -1.3588834411        3.1197068995
 C         0.8480231204       -0.8437922075        2.9114263529
 C         1.0470258881        0.7054201843        2.6973656987
 C         0.4933176350        1.8197280840        3.4598325004
 C         0.2868215898       -1.4736445786        1.7019604262
 C         0.0763378021       -1.1157833637        4.1651023439
 O         3.1538427272       -1.1228830203        2.2062524548
 O         1.5503087421        1.1257241290        1.6925085941
 C         1.4967135316        2.9697997066        3.5541901628
 C         2.7094081895        2.5918126728        4.3115135991
 C         3.6086869067        3.6974066027        5.0805779094
 C         4.9526054071        3.8292305422        4.0333173430
 C         5.8164153600        2.5811978413        3.8525670864
 O         3.0155501578        1.4165294374        4.4557530110
 O         4.9857317791        4.7795256457        3.3525541755
 C         3.0395586019        5.0971889013        5.2981805239
 C         3.9825313169        3.1922056703        6.4482880570
 C         6.7686681272        2.6272973592        2.6297907817
 C         5.9706972127        2.0414886085        1.4137945673
 C         6.8464002082        1.4781071817        0.1968466240
 C         5.9370957116        1.1483659239       -1.1197496031
 C         6.0580668298        2.0094158713       -2.3590120663
 C         7.9514714757        2.4745908543       -0.2425573223
 C         7.5609008880        0.1933374464        0.5507946620
 O         4.7766569902        2.0788186240        1.3687557837
 O         5.1912783769        0.1476310555       -1.0544499707
 C         4.8968327472        1.7155700738       -3.3044843497
 C         3.5037740784        1.8034782236       -2.7123514758
 C         2.3046606612        1.1454822489       -3.4091464999
 C         2.1007810078       -0.3771233439       -2.9177453738
 C         1.3423270727       -1.3737678263       -3.7838488987
 O         3.3312965310        2.2444707004       -1.5613310333
 O         2.5407798302       -0.8346952796       -1.8630870307
 C         0.9478969783        1.9418876378       -2.9597500077
 C         2.4746522868        1.2627595470       -4.8865814658
 C        -0.1230185890       -0.9209548584       -4.3581844829
 C        -0.6467864789       -2.0708292533       -5.2635449427
 C        -1.3828057239       -1.5094419584       -6.6346677953
 C        -2.2109496763       -0.2865014287       -6.0728736646
 C        -3.5603538927       -0.5665918592       -5.1595305491
 C        -0.3172126699       -0.9677146103       -7.5830278523
 C        -2.3042438568       -2.6844965347       -7.0412894383
 O        -0.6245608341       -3.2755328128       -5.1085321979
 O        -1.8319542235        0.8511261856       -6.2008388205
 C        -4.1377315778        0.5788220829       -4.2922487216
 C        -3.2674413288        1.0359771906       -3.1759138298
 C        -3.8761250075        2.1721229582       -2.1454827099
 C        -4.4644580413        1.3026453956       -0.9984739802
 C        -4.0640587410        1.5287922920        0.4805092417
 O        -2.1719039799        0.5233442224       -3.0429120166
 O        -5.2876909681        0.3856133457       -1.2596502612
 C        -2.6906411839        3.0460509451       -1.7685198612
 C        -5.0037283269        2.9246688161       -2.8866329288
 C        -4.9092482748        0.7973315696        1.5529011307
 C        -4.0274325359       -0.1268046904        2.4665220101
 C        -4.6572824938       -1.1801613181        3.4498158898
 C        -6.1526440364       -1.4930990607        3.0171238726
 C        -6.2353517092       -2.4195473929        1.7737591035
 C        -3.8271958613       -2.5072330791        3.6242931356
 C        -4.6949178063       -0.4057642328        4.8833907581
 O        -2.8164272865       -0.1245099059        2.4010456679
 O        -7.1626944730       -1.1171785609        3.5322840149
 C        -7.6936495280       -2.6478329226        1.3361377286
 C        -7.7891595971       -4.0015408200        0.6435708210
 C        -8.5146823236       -4.0361111673       -0.8800367550
 C        -9.5328261484       -2.8984255664       -0.9079392585
 C       -10.9710567288       -3.1291961220       -0.3695352579
 O        -7.2628849111       -4.9944367482        1.0961642124
 O        -9.3222495284       -1.8598064203       -1.5039551112
 C        -7.5304674769       -3.7390903738       -1.9560756960
 C        -9.1346527316       -5.4193616581       -1.0899003911
 H         2.1627126342       -2.8504975709        4.3278317763
 H         3.8623493617       -2.5752574978        4.2270810564
 H         2.9438540297       -1.5448482539        5.2658110677
 H        -0.5345623389        2.1200255459        2.9992830901
 H         0.2634166360        1.4233628373        4.4763094661
 H        -0.7460669533       -1.6682992015        1.7715040826
 H         0.6773354642       -2.5186019871        1.4994647985
 H         0.4873160263       -0.9455499969        0.7705780695
 H         0.5797880078       -0.6701023364        5.0269688976
 H        -0.8676132092       -0.5802408820        4.0938037129
 H        -0.0578023148       -2.2265356742        4.2686346427
 H         1.7266642881        3.2159911276        2.5589050892
 H         1.1566418680        3.9250060507        4.1387969888
 H         6.5350501631        2.4498666302        4.6556836783
 H         5.0656995114        1.6850766543        3.8780803006
 H         2.6178692003        5.5863717851        4.3731770606
 H         3.8543968648        5.6187320907        5.7037936073
 H         2.3186412742        5.0513834778        6.0609937549
 H         4.4540840145        3.9353618226        7.1387468351
 H         3.1257942939        2.8446922582        7.0382201319
 H         4.7630922329        2.3690951804        6.3676282294
 H         7.5860209213        1.9680327277        2.9373029422
 H         6.9280763404        3.7554775557        2.4417398691
 H         5.8055337057        3.0124987218       -1.9814944155
 H         6.9468045994        1.6872037455       -2.9904777525
 H         7.4209110510        3.4165508152       -0.4500324437
 H         8.5052390473        2.0817009251       -1.1496209064
 H         8.6948678812        2.5006367042        0.5765724631
 H         8.1376145665        0.5401546493        1.4319493616
 H         6.7988570587       -0.6642602321        0.6865903368
 H         8.3513646576       -0.1177818059       -0.1274131274
 H         5.0376735789        2.4294713827       -4.1218776789
 H         4.8969924871        0.7028023189       -3.7838103042
 H         2.1188949369       -1.6236416308       -4.5367177110
 H         1.2500225208       -2.2903662935       -3.2226434787
 H         0.2837377401        1.2941207528       -2.3568476964
 H         0.3754474332        2.2079402521       -3.8434960936
 H         1.2339808565        2.7842487459       -2.3417558618
 H         1.5450589248        1.2625951332       -5.3779749525
 H         3.0785694990        2.1207646983       -5.0509380168
 H         3.1434135129        0.4498033388       -5.3371425665
 H         0.0055552898        0.0188290789       -4.8654778994
 H        -0.7326061509       -0.7174727803       -3.5333009309
 H        -4.2945763144       -1.0048747805       -5.8469648805
 H        -3.2164007765       -1.3144703305       -4.4754385726
 H         0.2593732260       -0.1818963618       -7.1096476867
 H        -0.6645340274       -0.6319096805       -8.5304278237
 H         0.4572157719       -1.6991219950       -7.8659534514
 H        -1.7952778862       -3.5790732568       -7.4575628046
 H        -2.8164749789       -3.0642622475       -6.1842759390
 H        -3.0272188943       -2.2959620683       -7.7837581608
 H        -4.5766937989        1.3557493133       -4.9336615576
 H        -5.0616205182        0.1518161725       -3.8459237595
 H        -3.0905143482        1.1458428536        0.4806055569
 H        -3.9980288371        2.5637602795        0.7045603440
 H        -2.2583487222        3.4640408785       -2.6307786515
 H        -1.7750341227        2.5270539555       -1.3170481813
 H        -2.8006877665        3.8606100378       -1.0291984800
 H        -5.8562728251        2.3557745569       -3.2207915976
 H        -5.3012587159        3.8411631768       -2.2357197464
 H        -4.5471211563        3.3242086230       -3.8084828265
 H        -5.5815582208        0.0658974057        1.0518375640
 H        -5.4650895111        1.5855321068        2.1067688537
 H        -5.5540355697       -2.1400776414        0.9044312523
 H        -5.8314635063       -3.4892923554        2.1046059503
 H        -3.8911468231       -3.1272315339        2.7319615439
 H        -4.1559207236       -3.0744024311        4.5249705764
 H        -2.7703095446       -2.2015845074        3.8835914236
 H        -4.3553833026       -1.0498762542        5.7402454682
 H        -4.0468446477        0.4814982948        4.7932066592
 H        -5.7252328964       -0.0343307375        5.0503457648
 H        -8.3133259295       -2.7803852268        2.1653654829
 H        -8.1160300366       -1.7800149058        0.8106017653
 H       -11.5027000527       -2.2418458541       -0.3062530329
 H       -11.4230361690       -3.7224906779       -1.1001056674
 H       -11.0045864027       -3.5122095863        0.7069316458
 H        -6.5975059153       -3.1685845957       -1.8820148230
 H        -7.9546622471       -3.5475689676       -2.9332509864
 H        -7.0295590734       -4.6470888567       -2.1630079146
 H        -8.5128424316       -6.1908580227       -0.6974832443
 H       -10.0865478992       -5.5909276168       -0.5933470019
 H        -9.2454136557       -5.7222815443       -2.0928875799
 Na        3.1809508023        0.2185893937        0.3321444821
