155

 C         3.3474220240       -1.6409202346        4.0510577492
 C         2.6469376828       -1.2200553291        2.7214030273
 C         1.0877626162       -1.0468879022        2.6153423801
 C         0.9091563534        0.5812786568        2.3850054004
 C         0.1227328430        1.5342487846        3.4064682405
 C         0.5725329192       -1.6664319045        1.3782147087
 C         0.4304455044       -1.6379895480        3.8954585841
 O         3.3280777098       -1.0324483737        1.7604630839
 O         1.2220261661        1.1432159118        1.3506834121
 C         1.0102596222        2.8604031479        3.5395997984
 C         2.3048298617        2.5964607543        4.2796279005
 C         3.0892192167        3.7171487269        4.8831846990
 C         4.4371516048        4.0212277956        4.0469987188
 C         5.6023013142        2.9276888442        4.1616556046
 O         2.7853825229        1.5000432089        4.3318682928
 O         4.5911626727        5.0029559896        3.2789279825
 C         2.2703656980        5.0520358434        4.8467950751
 C         3.4132393229        3.4196909409        6.3620304897
 C         6.4441650265        2.8036958156        2.8753292584
 C         5.9767452781        1.8284738732        1.7484619246
 C         6.9558431183        1.2116302860        0.5295991404
 C         6.1166571593        0.9390975586       -0.7782375203
 C         5.7486224611        2.2251597893       -1.6129700005
 C         8.1631361133        2.1688628621        0.1505215689
 C         7.4315532700       -0.1718767546        1.0474933655
 O         4.7975064809        1.5298078153        1.6380966711
 O         5.7380859119       -0.1457575711       -1.1536111813
 C         4.7869071086        2.1058433534       -2.7977031555
 C         3.3612607447        2.0160518297       -2.2964182857
 C         2.2580722990        1.4726401922       -3.2546369344
 C         2.1803806932       -0.1404447149       -3.0378219635
 C         1.9112673741       -0.9226990967       -4.3241014413
 O         3.1548208604        2.0916405887       -1.1324335993
 O         2.3313567201       -0.7271177798       -1.9387097907
 C         0.8980035729        1.9886353411       -2.5585051509
 C         2.4051858656        2.0156780985       -4.7284114489
 C         0.5219982265       -0.7112961183       -4.9054801832
 C        -0.0715663190       -1.9651912345       -5.5928464116
 C        -1.2777970625       -1.6199770231       -6.5439046596
 C        -2.1249266361       -0.2183563142       -6.0038600858
 C        -3.5198981291       -0.4206171025       -5.3163213280
 C        -0.7772312219       -1.4296392307       -7.9582037373
 C        -2.3814787481       -2.7287593206       -6.6309729386
 O         0.2103966373       -3.0927574461       -5.2145218557
 O        -1.6732192569        0.8442754093       -6.0804440329
 C        -3.8709029924        0.7792390687       -4.4212001729
 C        -3.0017635570        0.9554731337       -3.2043229727
 C        -3.6268540139        1.9839651531       -2.0417116876
 C        -4.2760447048        1.0843999784       -1.0118592799
 C        -4.2684017960        1.4806130507        0.4862683151
 O        -1.9656751808        0.3391563319       -3.0761051734
 O        -4.9072516049        0.0909778399       -1.3922561279
 C        -2.4497304164        2.7542829389       -1.5141631812
 C        -4.6730290356        2.9257375708       -2.6706003760
 C        -5.0299226267        0.4282680499        1.3815956917
 C        -4.1563150682       -0.0132931712        2.5415656616
 C        -4.9396047775       -0.8727875579        3.6057599640
 C        -6.2849250670       -1.5036660725        2.9829842716
 C        -6.2095835506       -2.9333332155        2.1842780518
 C        -4.0973208499       -1.9194481940        4.3934102383
 C        -5.2898925363        0.2363038846        4.7272461313
 O        -3.0915040861        0.4481861098        2.8798320204
 O        -7.3170093518       -0.8976391570        3.0350377870
 C        -7.1132637235       -2.9304509812        0.8944840549
 C        -7.6001980576       -4.2272971038        0.2880092451
 C        -8.3543478947       -4.2071409387       -1.0629846700
 C        -9.3594177647       -3.0549825634       -0.9090346508
 C       -10.7993840557       -3.4485520107       -0.4010782272
 O        -7.4062705079       -5.2595020098        0.9141913107
 O        -9.0461864238       -1.9052200949       -1.0991358171
 C        -7.4635336463       -3.9901776916       -2.3212317006
 C        -8.9861520189       -5.5926074543       -1.1973207371
 H         2.9365168861       -2.4425969006        4.6147641935
 H         4.4044098422       -1.6225046313        4.0510966764
 H         3.1153638171       -0.7605833206        4.5926034698
 H        -0.9237748852        1.7334482816        3.1291719332
 H         0.2081685131        1.1178112833        4.4473199343
 H         1.4115700308       -1.6812234570        0.7043676594
 H        -0.3245857206       -1.2692296816        0.9635877532
 H         0.4759415589       -2.8394934815        1.3902939968
 H         0.7246433368       -0.9908300135        4.8164849299
 H        -0.6225156121       -1.6936376539        3.7333884974
 H         0.7636468146       -2.5960277853        4.1175172710
 H         1.0337681494        3.2142955878        2.4452947599
 H         0.4238618396        3.4635746645        4.2297644760
 H         6.2801303058        3.2172159022        5.0095405387
 H         5.0424436422        1.9989203769        4.3011586857
 H         1.9308954186        5.2389058291        3.8406301421
 H         2.8477828146        5.8829135607        5.1662373776
 H         1.4975744864        4.9120073445        5.5510173601
 H         3.6683153558        4.3653304601        6.9335153710
 H         2.5538005803        2.9260145286        6.7798377514
 H         4.2371707492        2.6978135057        6.5604509409
 H         7.4546669907        2.4023431765        3.1869908990
 H         6.4502158509        3.8288761852        2.4524810373
 H         5.3870535917        2.9295067572       -0.8890678870
 H         6.6752956672        2.6440167635       -2.0412418680
 H         7.7859015799        3.1893531546        0.2827469903
 H         8.5339028313        1.8539201116       -0.7597718011
 H         8.8852723555        2.1152647205        1.0083898778
 H         8.2943056711       -0.0843903849        1.7761250808
 H         6.5984590094       -0.6298752599        1.6022333147
 H         7.6760144915       -0.8398845902        0.1595066075
 H         4.7968978886        3.1630277908       -3.2665091832
 H         5.1102578757        1.3207079588       -3.5318916365
 H         2.5526322679       -0.5115254907       -5.1122096287
 H         2.0393666522       -2.0249981498       -4.3432671508
 H         0.1541183849        2.2573328737       -3.2827202089
 H         1.1331614252        2.9063783143       -2.0323406762
 H         0.4840641798        1.2253257794       -1.8504801480
 H         1.5204629898        1.9332202400       -5.3675064958
 H         2.3616142349        3.1480201318       -4.6604659271
 H         3.2539647385        1.5524010241       -5.1884452758
 H         0.4206002658        0.2012988868       -5.4108382422
 H        -0.1555352829       -0.5973950398       -4.0591949102
 H        -4.1742511925       -0.5289061180       -6.1580453772
 H        -3.4762709788       -1.2283656470       -4.6308836993
 H        -0.1306332741       -0.6103146524       -8.2001953201
 H        -1.6452155310       -1.1899788740       -8.5529778623
 H        -0.2533143970       -2.2657187014       -8.3748408145
 H        -1.8780763030       -3.6174604230       -7.0071651493
 H        -2.7939719615       -2.9773052822       -5.6606285121
 H        -3.2028827590       -2.4138313499       -7.2934696364
 H        -3.9003673114        1.6269642619       -5.0749190589
 H        -4.8996870578        0.5723188190       -4.1775906645
 H        -3.2452562947        1.5634526160        0.7374745093
 H        -4.6373726644        2.5127525341        0.5117906276
 H        -1.9201052008        3.3789672674       -2.2776364153
 H        -1.7244571822        2.1793913779       -0.9655994548
 H        -2.6566931877        3.5130989850       -0.7386044077
 H        -5.6154059089        2.4729519583       -2.5768886965
 H        -4.7896383782        3.9112233784       -2.3190626144
 H        -4.3013812189        3.0688105035       -3.7514585616
 H        -5.4274365476       -0.4753674626        0.8710854121
 H        -5.9726505374        0.8920742385        1.7476059930
 H        -5.1536781608       -3.2377722256        1.9487845049
 H        -6.5048235964       -3.7236591687        2.8833594309
 H        -3.8812434713       -2.8529829238        3.8213202773
 H        -4.6938453040       -2.2281225412        5.2338141008
 H        -3.1087758104       -1.5566258182        4.6561869632
 H        -6.0311490273       -0.1856155565        5.3991749372
 H        -4.2845233151        0.4001650001        5.1809720952
 H        -5.7336405987        1.1749194932        4.4017114308
 H        -8.0057363545       -2.2640007338        1.2129423448
 H        -6.5177113587       -2.3927748029        0.2165453742
 H       -11.2099368104       -2.5763882587       -0.0171882219
 H       -11.4567956535       -3.8665526396       -1.1650338110
 H       -10.7175703049       -4.3609398898        0.2171658483
 H        -7.4612028993       -2.9701365589       -2.6476271228
 H        -7.8133214102       -4.4792413799       -3.2284985714
 H        -6.3870416823       -4.0949520408       -2.2123591974
 H        -8.2645145085       -6.3322662942       -1.1958300379
 H        -9.6566483645       -5.7801824320       -0.4079079002
 H        -9.6631892089       -5.7069354906       -2.0443749626
 Na        3.0061046284        0.3500951339        0.1663878164
