155

 C         2.7364860586       -2.4543520096        3.7152295623
 C         2.2738481828       -1.8352812528        2.4194483901
 C         0.7589518022       -2.0101879220        1.9353919485
 C         0.4185503684       -0.3426386033        2.0356173076
 C        -0.0881156177        0.1554235769        3.3086968987
 C         0.6359411705       -2.4882716549        0.4614911592
 C        -0.0688439832       -2.8504198688        2.8778413279
 O         3.0998109774       -1.2764531533        1.7387664487
 O         0.7448167768        0.2663385497        1.0399106690
 C        -0.0144428508        1.7268823631        3.3593086884
 C         1.3034026185        2.2666872181        4.2094804557
 C         1.7124298045        3.8249976497        4.1806821630
 C         3.2583644654        3.9246009372        3.5930378468
 C         4.3440196948        3.0940769084        4.2841907453
 O         1.9670447814        1.4929116911        4.9179113748
 O         3.4286787301        4.4060879249        2.4727295740
 C         0.8603887744        4.6926341780        3.2533060793
 C         1.5930915982        4.3134606366        5.5856921248
 C         5.5981576236        2.9091800002        3.3136438390
 C         5.4171268053        1.9248883465        2.1860700051
 C         6.7320920711        1.5577304219        1.2717136645
 C         6.1655350951        1.5296758523       -0.2187571301
 C         6.3561943304        2.7403585175       -1.0546700718
 C         7.9457791395        2.4874207635        1.6781566210
 C         7.0545558229        0.0715052912        1.6116917918
 O         4.3717213663        1.3386995050        1.9879163395
 O         5.6406134161        0.5095537185       -0.5981286622
 C         5.5005815042        2.6779702381       -2.3045811269
 C         3.9844408510        2.4343103608       -1.9765710958
 C         3.0657470887        2.1508877592       -3.2722952523
 C         2.7811434130        0.6019133959       -3.2529736556
 C         2.6784754094       -0.1287131681       -4.6476095283
 O         3.4820523888        2.4953018537       -0.9055776454
 O         2.6626549720       -0.0771028900       -2.1810403366
 C         1.7461847961        2.9828040931       -2.8899517383
 C         3.6086611721        2.7382125389       -4.6308827896
 C         1.1314425019       -0.2725176713       -4.8389378750
 C         0.8074886146       -0.7959205300       -6.2710506601
 C        -0.4846389572       -1.6746697713       -6.3472977099
 C        -1.5717079657       -0.7365111993       -5.6682187847
 C        -2.2416994156       -1.0795237747       -4.3156356683
 C        -0.9652027269       -2.0474321034       -7.7466082625
 C        -0.4188591022       -2.9150804289       -5.4046599119
 O         1.3417823229       -0.3107791226       -7.1853835535
 O        -1.8175216414        0.3659376304       -6.1909669580
 C        -3.0324264071        0.0745557201       -3.7434516022
 C        -2.3978045554        0.9649889481       -2.6974802465
 C        -3.4099056055        1.8776793275       -1.9405925920
 C        -4.1639496168        0.8780706441       -0.9280515037
 C        -3.7385002896        0.9894494293        0.5259428251
 O        -1.1964349542        1.1392210363       -2.6281415121
 O        -4.9857860496        0.1647457788       -1.3553992043
 C        -2.7820780188        3.0917345921       -1.1919125720
 C        -4.4504561555        2.4688266760       -2.9813892691
 C        -4.8800643286        0.7586229115        1.4146700920
 C        -4.4425988360        0.0524142717        2.8797719089
 C        -5.6177040342       -0.3348386428        3.8000527476
 C        -6.5920167180       -1.4106391645        2.9232724387
 C        -6.0309405017       -2.6774208832        2.2394761164
 C        -5.2983649287       -0.8512902045        5.1828081675
 C        -6.5433239677        0.9599071786        3.8800139842
 O        -3.2820151719       -0.2492184852        3.1426339835
 O        -7.6335814354       -0.9237747156        2.6798088488
 C        -6.4993914433       -2.7869400775        0.7697386229
 C        -7.0757475363       -4.1582392862        0.3994584213
 C        -7.5695217827       -4.4328296498       -1.0400577834
 C        -9.0849854217       -3.9427239393       -0.9525616026
 C       -10.0914473629       -4.5901863197        0.0032549774
 O        -7.4539665963       -4.9375703469        1.2711712376
 O        -9.4247607287       -3.1361230268       -1.7702883037
 C        -6.7919606946       -3.6167231077       -2.1419872715
 C        -7.4584929861       -6.0191842023       -1.3402992311
 H         3.2955215924       -3.3386169933        3.5401485714
 H         3.3555915473       -1.8037574940        4.2890097921
 H         1.9492458309       -2.7951356876        4.3609191828
 H        -1.1026866921       -0.1478704880        3.5138318823
 H         0.4129000015       -0.3549428071        4.0989292537
 H         1.0802811949       -1.7180934593       -0.1831531236
 H        -0.4755548353       -2.5237381444        0.3996364229
 H         0.9033823232       -3.4740078053        0.2951326048
 H         0.0243265338       -2.4571847180        3.8438744953
 H        -1.1110804142       -2.7511627464        2.5821172081
 H         0.0880951394       -3.9471120282        3.0209183604
 H        -0.1296440193        2.1425047452        2.4371968688
 H        -0.9251500695        2.2165084722        3.8353444621
 H         4.6292220925        3.4856152107        5.2043684426
 H         3.8005665366        2.0934449109        4.4154459440
 H         0.9558635846        4.3643394007        2.2682422197
 H         1.2956594401        5.6846130259        3.2306635289
 H        -0.1801557031        4.7953782571        3.5687076300
 H         1.2313736318        5.3357699123        5.6911019489
 H         0.9668183710        3.5919139381        6.2143416773
 H         2.6167248287        4.2746075520        6.0210813017
 H         6.4084686680        2.5307690969        3.8991909539
 H         5.9524797691        3.8302066456        2.9236266255
 H         6.0310686019        3.5969754162       -0.4348295063
 H         7.4156775579        3.1441408459       -1.1868001204
 H         7.7113279763        3.4992362014        1.4183984734
 H         8.8119047089        2.1750948110        0.9862814726
 H         8.2129010934        2.5155645947        2.7038149106
 H         7.4484938235       -0.0764598210        2.6542564602
 H         6.1932407654       -0.5810295954        1.6052541807
 H         7.7028593493       -0.5288618461        0.9388941860
 H         5.3874066582        3.5688524670       -2.8998632553
 H         5.7798073034        1.9291271378       -3.0445273431
 H         3.0939405353        0.4207978064       -5.5372215881
 H         3.0327169845       -1.1150497956       -4.6646045207
 H         0.8870774595        2.3691756663       -2.5577390371
 H         1.3204602647        3.3580150192       -3.8256593999
 H         1.9569993671        3.7498644926       -2.1616729682
 H         2.9314358535        2.5156030191       -5.5170541149
 H         3.6204072395        3.8092398460       -4.4954682123
 H         4.5998592708        2.2522592472       -4.9019458452
 H         0.7127584586        0.7649615371       -4.8049601433
 H         0.7394959672       -0.8028816433       -3.9289878991
 H        -2.9824758305       -1.9270991341       -4.5128278640
 H        -1.4985506359       -1.4822889636       -3.6267595447
 H        -1.1205074765       -1.1508500616       -8.3241905726
 H        -1.9300885631       -2.4726642117       -7.8283594848
 H        -0.2262449265       -2.5593260546       -8.3608721431
 H         0.4394941647       -3.5404228037       -5.7131872368
 H        -0.3584673218       -2.5448477351       -4.4227149954
 H        -1.3511230610       -3.4901690136       -5.4482762649
 H        -3.2750002991        0.7074714160       -4.6153000201
 H        -3.9858669114       -0.3225323896       -3.4685275977
 H        -3.0401078938        0.1292379375        0.6312533673
 H        -3.1973028090        1.9373268124        0.7588539237
 H        -2.3953981964        3.9015532929       -1.7911273859
 H        -2.0468340511        2.6876905966       -0.4389464098
 H        -3.5576782455        3.5499838496       -0.5457974220
 H        -5.0487711548        1.6105997336       -3.2772919643
 H        -5.1290219578        3.0524391785       -2.4020434344
 H        -4.0248575622        3.0517047063       -3.7338673155
 H        -5.4688849904       -0.0061609079        0.9748915887
 H        -5.4417187729        1.6302115308        1.6849494341
 H        -4.9820548565       -2.8023486528        2.3215053766
 H        -6.4051402998       -3.5287820507        2.7394451218
 H        -4.2012445267       -0.7986384502        5.3335707210
 H        -5.5567942045       -1.9448995312        5.1769279619
 H        -5.7203159694       -0.3306164158        6.0857326745
 H        -7.4841641855        0.7598465386        4.4289352646
 H        -5.9387802431        1.7703332157        4.2883621861
 H        -6.9690833984        1.1895557963        2.8922902670
 H        -7.3417992398       -2.0953878003        0.6207886557
 H        -5.7827467388       -2.3577508512        0.0905638375
 H        -9.4775114626       -5.0286971495        0.8590218755
 H       -10.6046864239       -3.7977333899        0.6049721570
 H       -10.6667412194       -5.2490295047       -0.5975864264
 H        -7.2259036140       -2.5829935047       -2.2233640761
 H        -6.8500105406       -4.0485564224       -3.1205131149
 H        -5.7774799861       -3.4386828614       -1.8573484872
 H        -6.4082917226       -6.2099058095       -1.4654504919
 H        -7.8771228960       -6.5020098473       -0.5061722859
 H        -8.0180726000       -6.2455050568       -2.1665439753
 Na        2.9153921738        0.3779914783       -0.0108889128
