155

 C         2.4434490650       -3.5243690075        2.5614905802
 C         2.3428248818       -2.3477898183        1.5943495608
 C         0.9154991458       -1.7845125839        1.2597638109
 C         0.8094893835       -0.2714595200        1.6993998529
 C        -0.4206686335        0.1650566955        2.4520755101
 C         0.7051354811       -1.7729993530       -0.3112343064
 C        -0.1821687359       -2.5929967857        1.9036304728
 O         3.3953738769       -1.8317030451        1.2414656696
 O         1.5498495231        0.5802502039        1.2739543972
 C        -0.4961405526        1.7916874499        2.6138573357
 C         0.5314815809        2.1939726579        3.6539024995
 C         0.9347391387        3.6955622701        3.8014588511
 C         2.4551361175        3.9018426907        3.4178181026
 C         3.4801907587        3.1689561429        4.2405444425
 O         1.0698213773        1.3930355336        4.4265391450
 O         2.8092915004        4.7460910870        2.5450545762
 C         0.0763039743        4.7098779108        3.0072405177
 C         0.5443276588        3.8939088635        5.3251748164
 C         4.9298084495        3.2161249860        3.6902551233
 C         5.0804594414        2.0205342963        2.5893596369
 C         6.4650448671        1.6267784963        2.0203534282
 C         6.2121083482        1.6708072125        0.4429140597
 C         6.2056696969        3.1062212898       -0.1634200966
 C         7.6610512819        2.4984601764        2.5142837549
 C         6.8553776662        0.2331011535        2.3862697919
 O         4.0002242975        1.5816885778        2.2718660966
 O         6.2578388050        0.6483482221       -0.2771384950
 C         5.7334129447        2.9874667191       -1.6434387289
 C         4.2152089804        2.5526742996       -1.6332575302
 C         3.2971750544        2.4954058114       -2.9021218092
 C         3.0597014985        0.8328782006       -3.1787617804
 C         2.9261938902        0.5033550423       -4.6815266084
 O         3.7292426309        2.1850525828       -0.5708062247
 O         2.9069886084       -0.0093635009       -2.3220585020
 C         1.8380034207        2.9059138796       -2.4611332690
 C         3.8400674287        3.2386969040       -4.1606918889
 C         1.4904833381        0.3217079231       -5.1119386601
 C         1.2731208200       -0.6635610151       -6.3346754908
 C        -0.0274103946       -1.5777581753       -6.4262508212
 C        -1.2313706509       -0.8638164149       -5.7657959627
 C        -1.7940657981       -1.2692201065       -4.3875859306
 C        -0.2096117887       -1.6746218680       -8.0277877772
 C         0.3055670688       -2.9770797982       -5.8137735293
 O         2.0781264431       -0.7307276870       -7.1410714170
 O        -1.6031256782        0.2284879360       -6.2504317646
 C        -2.8699035266       -0.1775536983       -3.8750469548
 C        -2.5694662978        0.3967304321       -2.4763423650
 C        -3.4620464468        1.6096723222       -1.8832971413
 C        -4.2952868357        1.0648456255       -0.6962850981
 C        -4.2098261409        1.7761748589        0.7225539837
 O        -1.7068562604       -0.0803139694       -1.7963970256
 O        -5.1137526156        0.2542349494       -0.9506798418
 C        -2.3455833229        2.5943271024       -1.5318878746
 C        -4.5516174623        2.0935563016       -2.9454122235
 C        -5.3510530251        1.4347629301        1.5941421687
 C        -4.9491046460        0.3456913243        2.6241506509
 C        -5.9164467517       -0.2449961167        3.5887680605
 C        -7.0943960222       -0.9573344597        2.6654079138
 C        -6.7014671993       -2.3022987452        2.3731224844
 C        -5.2432942406       -1.2905018739        4.4866157392
 C        -6.5279589663        0.8906672182        4.5616119470
 O        -3.7882104444       -0.0917447276        2.6248038872
 O        -8.0069988627       -0.3279519217        2.2324858942
 C        -7.4660561868       -3.0048597815        1.2560989357
 C        -6.6184541956       -4.0923446343        0.5733993690
 C        -7.1559460936       -4.7214219356       -0.8193654530
 C        -8.7593621562       -4.5231661163       -0.8626397400
 C        -9.7615976948       -5.3896663425       -0.0692366613
 O        -5.5934690672       -4.5401988539        1.0295969227
 O        -9.2256405988       -3.5738730726       -1.4900275862
 C        -6.6103447066       -3.8686912851       -1.9666996321
 C        -6.7236042638       -6.2002024587       -0.8548705745
 H         3.1302041969       -3.1253697514        3.3080785145
 H         1.6559674044       -4.0443000769        3.0401282772
 H         3.0200146288       -4.3005565156        2.0509719201
 H        -1.1532645356        0.0909716722        1.7109209682
 H        -0.7750716001       -0.3542566036        3.3771893335
 H         1.6416759918       -1.7826208417       -0.8010268461
 H         0.1363940622       -0.8216623451       -0.5143020940
 H         0.2387239798       -2.6866575995       -0.5115979152
 H        -0.2933928206       -2.5607124173        2.9156646861
 H        -1.1430513823       -2.2888108326        1.4035155229
 H        -0.0918470246       -3.6440463516        1.5518327548
 H        -0.4283602502        2.3269277853        1.6291005515
 H        -1.4589736529        1.9751172952        3.0070392837
 H         3.4906430090        3.4410255715        5.3200615240
 H         3.2832366301        2.1341767709        4.1788835661
 H         0.1861768191        4.5106053430        1.9209956891
 H         0.3324757347        5.7270644472        3.2240543013
 H        -0.9697374472        4.6567640216        3.1305793267
 H         0.5675662625        4.9377185851        5.7528478475
 H        -0.4615214172        3.5433166418        5.5191709021
 H         1.2526158394        3.2981803359        5.9436388450
 H         5.5036302110        2.8937073965        4.5574151958
 H         5.1985906918        4.1711968593        3.3713813102
 H         5.4637490156        3.6338230177        0.2331861464
 H         7.2380088615        3.4138180661       -0.2080106050
 H         7.7014889196        3.5118043809        2.3283376578
 H         8.6909131772        2.1737209388        2.1380077987
 H         7.7691920466        2.4095260800        3.5962682667
 H         7.0709809662        0.1994454399        3.4825785434
 H         6.0709189095       -0.5398887172        2.2146129728
 H         7.7866655753       -0.2638787812        2.0906712468
 H         5.5794336774        3.9654285953       -2.1072766953
 H         6.3601520806        2.3226294582       -2.2210366212
 H         3.4740601202        1.2250807289       -5.2716077863
 H         3.4826955801       -0.4390010596       -4.7962112837
 H         1.3095424736        2.2076387272       -1.7998516917
 H         1.2972120279        3.0657854091       -3.3688136820
 H         1.7776217027        3.9370054350       -2.0280846181
 H         3.2061260834        3.2337732109       -5.0483377099
 H         3.9335334483        4.3110009229       -3.9346908963
 H         4.8774167047        2.8180318365       -4.4654391547
 H         0.9894530284        1.2528484961       -5.5063673573
 H         0.9012700478       -0.0645980625       -4.2499513155
 H        -2.4251440990       -2.1216854601       -4.4109488023
 H        -0.9437072301       -1.3433030760       -3.6461246346
 H        -0.7171405143       -0.8027456037       -8.4696737649
 H        -0.7772668996       -2.5813798726       -8.2461427737
 H         0.7067418678       -1.8328356977       -8.6571316926
 H         1.3459059498       -3.2592762861       -6.0029801147
 H         0.3204194747       -2.9137340638       -4.7523652854
 H        -0.4695987622       -3.7240446803       -6.0831555440
 H        -2.9216775512        0.5950710881       -4.6164125445
 H        -3.8496655086       -0.6566367918       -3.9659876214
 H        -3.1985147792        1.5215019217        1.1202531757
 H        -4.1916510861        2.8505502655        0.4911329437
 H        -1.8705258396        2.8970163255       -2.4526681699
 H        -1.5203838731        2.0421436326       -0.9176927054
 H        -2.7800778541        3.4881108468       -1.0368107126
 H        -5.2266682774        1.2409639041       -3.0027791922
 H        -5.1817480173        2.9074642058       -2.5609077691
 H        -4.1442225914        2.2964860845       -3.8559747074
 H        -6.1099960951        0.9109056889        1.0058428438
 H        -5.7944992738        2.2524837859        2.1510490008
 H        -5.7217036799       -2.1672065139        1.9835359300
 H        -6.6429801382       -2.9700003718        3.2019306268
 H        -4.4325948643       -1.8087872234        3.9204951331
 H        -5.9117655160       -2.0786176326        4.8334954752
 H        -4.6987681554       -0.9171091513        5.4100340919
 H        -7.1834385662        0.3476999856        5.2543769150
 H        -5.7256482877        1.4252784665        5.1438685100
 H        -7.0295831486        1.7148589279        4.0554407842
 H        -8.3100162915       -3.6052918266        1.7263681974
 H        -7.8093626838       -2.4094994416        0.5224989946
 H        -9.3807449616       -5.8360846997        0.9125793179
 H       -10.6555323224       -4.7982447683       -0.2639049192
 H       -10.0402148242       -6.2425239567       -0.6482818014
 H        -6.7230416009       -2.7768782003       -1.7515237123
 H        -7.0840328001       -4.1572615456       -2.9036625616
 H        -5.6006392560       -4.1959627129       -2.0081473160
 H        -5.6510488685       -6.3177650201       -0.9256327085
 H        -7.0945601969       -6.6750881990        0.0571799536
 H        -7.2409531838       -6.4969715885       -1.7488304674
 Na        3.7225922032        0.2793315909        0.3227958961
