155

 C         2.4209248141       -3.6346948018        2.2964574233
 C         2.2318828857       -2.3868618100        1.5050002957
 C         0.8445083635       -1.7880730144        0.9945616399
 C         0.7170447514       -0.2357831094        1.4845147621
 C        -0.5252335875        0.1954595664        2.1703207648
 C         0.9602684330       -1.8294998776       -0.5015548747
 C        -0.3641737547       -2.5711596921        1.5709314699
 O         3.2830148057       -1.8187496692        1.2989581322
 O         1.5161686348        0.6028085076        1.1144757577
 C        -0.6085829570        1.6605631924        2.4991538766
 C         0.3960245881        2.1364851471        3.6686335085
 C         0.7614952692        3.6027189454        3.8170092140
 C         2.4016393140        4.0495346721        3.5904037750
 C         3.4517035997        3.3855266432        4.4069522404
 O         0.7828670482        1.2624902541        4.3800918857
 O         2.6260666790        4.9124960677        2.8255969378
 C        -0.0335093150        4.4816254653        2.8428787242
 C         0.6735867253        4.0774768127        5.3083141281
 C         4.8411228876        3.2390378587        3.6965207681
 C         4.9657626773        2.0446502271        2.7115783319
 C         6.5558810773        1.7359707106        2.1289437477
 C         6.4145626646        1.7305340071        0.5607745701
 C         6.3429807527        3.1078573410       -0.1513571676
 C         7.6584044749        2.7334819193        2.5909429425
 C         6.7543738351        0.2686844534        2.5702588596
 O         4.1421537431        1.2150280433        2.3807452977
 O         6.4183878503        0.7242332925       -0.0580338223
 C         5.6929877454        3.0776936188       -1.5941136161
 C         4.2138342876        2.5238406250       -1.5232677977
 C         3.3195721544        2.6467795965       -2.8298623369
 C         3.0343799316        1.0134165443       -3.1970474959
 C         3.0396661462        0.4162261797       -4.5971844461
 O         3.6841283144        2.1682691138       -0.4476900057
 O         2.8662223694        0.2690702355       -2.2480819616
 C         1.8507629951        3.1114170021       -2.4207599458
 C         3.9059199398        3.5614229341       -3.9884410069
 C         1.5795748850        0.1061144233       -5.0202611007
 C         1.4424910071       -0.7335963635       -6.3055781832
 C        -0.0076615173       -1.5806441502       -6.3918808134
 C        -1.1271771361       -0.6720300489       -5.6979713947
 C        -1.9088912575       -1.2772890113       -4.5223464183
 C        -0.5739975757       -1.7562510523       -7.8047650652
 C         0.3479400696       -2.9014646380       -5.7503693394
 O         2.3230384477       -0.8079149990       -7.1801835322
 O        -1.3198090544        0.4495312074       -6.0569622972
 C        -2.8789991460       -0.2520331901       -3.9331446606
 C        -2.6479829601        0.2005876337       -2.4878927147
 C        -3.4464748618        1.4977826671       -1.9764639169
 C        -4.2704723253        1.0094188692       -0.6480829480
 C        -4.3487750193        2.0626266745        0.5059732318
 O        -1.8644371719       -0.4258250800       -1.7766922015
 O        -4.8351761356       -0.0869169406       -0.6572921719
 C        -2.4048497951        2.6178488381       -1.5946220822
 C        -4.2670708489        2.1746960102       -3.1377431054
 C        -5.4238285845        1.6117362824        1.5365983548
 C        -4.9203645523        0.4240061617        2.4277410700
 C        -5.9364120889       -0.1916204591        3.4353705222
 C        -6.9856519490       -1.0163608801        2.7461886304
 C        -6.6975002808       -2.5616406551        2.4745840170
 C        -5.2195857854       -1.0997763324        4.4548012115
 C        -6.7226016398        0.8078458651        4.2741204127
 O        -3.8233003038       -0.0359896533        2.3684629096
 O        -7.9376660518       -0.4194712369        2.2186125380
 C        -7.5523870162       -3.1399724246        1.3676409851
 C        -6.6437264956       -4.1705755966        0.6212770984
 C        -7.1496291470       -4.7855624299       -0.7454774168
 C        -8.7102288322       -4.6118062559       -0.8243863712
 C        -9.5720537318       -5.6327924842       -0.1277217852
 O        -5.4746479865       -4.3161058906        0.9073128470
 O        -9.2805817853       -3.6800009925       -1.3582308577
 C        -6.4532896131       -3.7265052375       -1.7274832250
 C        -6.7629042993       -6.2360904205       -0.9518246125
 H         2.6842110597       -3.3374306776        3.3029971756
 H         1.5326472520       -4.2691932016        2.3656166452
 H         3.2611653027       -4.1939762579        1.9267472047
 H        -1.4604825178       -0.1367227370        1.5407972515
 H        -0.5156571588       -0.1892607394        3.1702233466
 H         2.0095532156       -1.9726102858       -0.7322695714
 H         0.5115586790       -0.9935887754       -0.9784492740
 H         0.5209396243       -2.8321211083       -0.7956095072
 H        -0.1388193421       -2.7251298511        2.6841969425
 H        -1.3159153566       -2.1153939862        1.4197195386
 H        -0.4500962103       -3.5643626069        1.1942983383
 H        -0.2562382727        2.2109672206        1.6118594592
 H        -1.7227070472        1.8690388924        2.7410286417
 H         3.5646464325        3.9322928705        5.3404236377
 H         3.1529575123        2.3356772580        4.7124813346
 H         0.3344164633        4.5912556847        1.8108452139
 H        -0.2753643126        5.4432479723        3.2636011320
 H        -1.0326143762        4.0628253098        2.7288056490
 H         1.3684504600        4.8595532994        5.6193324845
 H        -0.3354584225        4.4916131089        5.4597754674
 H         0.8287923275        3.2687830567        6.0232103743
 H         5.7103916240        3.1172019061        4.3724450223
 H         4.9200892187        4.2559165567        3.1349610416
 H         5.5293470155        3.7737824561        0.3647938216
 H         7.3760756578        3.4062783819       -0.3149665287
 H         7.3869889145        3.8402030082        2.5116098554
 H         8.6113915090        2.7442186304        2.2266769283
 H         7.7295651071        2.6680902709        3.6931924956
 H         6.6261862778        0.1397718317        3.5965269433
 H         6.1026830511       -0.4283348483        2.0715988811
 H         7.7144584636       -0.1188650988        2.5028402648
 H         5.5872388258        4.0746237610       -2.0482773581
 H         6.3009259305        2.4236078258       -2.2317445066
 H         3.5465330165        1.0029550128       -5.3901077763
 H         3.6537989922       -0.5059791884       -4.4628921389
 H         1.6588255890        2.6283043868       -1.4695564966
 H         0.9940680082        2.9452117678       -3.1191008928
 H         1.8399374290        4.1722669179       -2.2183312876
 H         3.1525500192        3.6303774154       -4.7769921852
 H         3.9251390293        4.6121849208       -3.6170632561
 H         4.7843338320        3.2761990698       -4.4914109273
 H         1.0173422087        1.0120522150       -5.1675100418
 H         1.0259793176       -0.5689045381       -4.3552967953
 H        -2.4652201347       -2.2248263022       -4.8078007125
 H        -1.2139548037       -1.4533283584       -3.6985380733
 H        -1.2425315833       -0.9807778698       -8.1242485655
 H        -1.0819406591       -2.7243146315       -7.8658076442
 H         0.1621644388       -1.7678334905       -8.5648658242
 H         1.2373107744       -3.2944259372       -6.2286761821
 H         0.5074126263       -2.9106113389       -4.6294077769
 H        -0.4878954405       -3.5783020146       -5.8780166650
 H        -2.8876969203        0.5854564568       -4.6973864911
 H        -3.9129453976       -0.6454208200       -3.9273255339
 H        -3.3197079889        2.2954540619        0.8073010744
 H        -4.7138871979        2.9751210377       -0.0183799309
 H        -1.8318262156        2.7847039557       -2.5504608683
 H        -1.7604420286        2.2384642505       -0.8544477812
 H        -2.8446780847        3.5727798354       -1.3250519369
 H        -4.9599534348        1.5518666995       -3.6834161186
 H        -4.8318936897        3.0474834045       -2.8137372263
 H        -3.4262366321        2.6069789690       -3.7700626138
 H        -6.4112241947        1.4255302648        1.0304219574
 H        -5.5910937373        2.4402248246        2.2954644721
 H        -5.6532724730       -2.8210883916        2.2279670638
 H        -6.8702982312       -3.1174636097        3.4131171872
 H        -4.2426049391       -1.5520954340        4.2184820659
 H        -5.9246882464       -1.8935642230        4.7845404520
 H        -4.9283997605       -0.5062663304        5.3135563753
 H        -7.3434617910        0.2479611173        4.9951528083
 H        -6.0999583837        1.5728600258        4.7113863407
 H        -7.4142636976        1.3814002368        3.6157564723
 H        -8.4482299608       -3.6312197889        1.6361086309
 H        -7.7323397858       -2.2436092634        0.6103070470
 H        -8.9032206921       -6.1893977511        0.4221950086
 H       -10.3200270850       -5.1057606980        0.3973947898
 H       -10.2361333188       -6.3061328178       -0.7323542300
 H        -6.2925751231       -2.8006809071       -1.2721646266
 H        -7.2529093954       -3.6600175741       -2.4422304096
 H        -5.5187271426       -4.1482255506       -2.1432125797
 H        -5.8596817977       -6.4220432788       -0.4192248724
 H        -7.5252747213       -6.8604970299       -0.5327573136
 H        -6.6661535546       -6.4363585406       -2.0268343490
 Na        3.7917055714        0.0410693231        0.2563663610
