155

 C         2.0316064355       -3.7705062743        2.2141778162
 C         2.1469122925       -2.4494100139        1.4707818394
 C         0.8050063013       -1.8281295747        0.9006531313
 C         0.6657722511       -0.3434674208        1.1769392123
 C        -0.4697322417        0.1690864568        2.0220095741
 C         1.0178027140       -1.9091708365       -0.6904114827
 C        -0.4803305320       -2.7290400740        1.1400548167
 O         3.2760444043       -1.9783002225        1.3716052801
 O         1.5825748639        0.4153455523        0.9085902388
 C        -0.3575838634        1.7197081645        2.3541896827
 C         0.3967270470        2.0711810962        3.5867113884
 C         0.7030106171        3.6310648870        3.8177983886
 C         2.2456624289        3.9531500579        3.5942433435
 C         3.2770349513        3.0850063355        4.3357080398
 O         0.8544726341        1.3181684402        4.4736224855
 O         2.5676720327        4.8654018619        2.8350543022
 C        -0.0650430192        4.6266993727        2.9560966924
 C         0.4035892799        4.0078156513        5.2253146900
 C         4.6566915568        3.2834124335        3.6724673390
 C         4.9265047007        1.9674571767        2.7654356472
 C         6.4876477508        1.7648306053        2.1755726232
 C         6.3338889461        1.8528201291        0.6335774981
 C         6.3965181628        3.1669956718       -0.1529256036
 C         7.3043830506        2.9528646424        2.7137427376
 C         6.9904820088        0.3677853245        2.7961920922
 O         4.0548891423        1.1916477623        2.4641777432
 O         6.1839547975        0.7696838432        0.0193065306
 C         5.7361971971        3.0787081220       -1.5752522315
 C         4.2206923913        2.7293565142       -1.3457370001
 C         3.3167498169        2.6465850952       -2.7009006565
 C         3.1086835384        1.1353007308       -3.0328219757
 C         3.0464561931        0.6799325120       -4.5832823402
 O         3.6946865949        2.5829513332       -0.2879990236
 O         3.0396716797        0.3142214025       -2.1424677689
 C         1.9414342871        3.2565311993       -2.3902692145
 C         3.9440434944        3.4043739987       -3.9813932280
 C         1.7165539631        0.0488732700       -4.7835257058
 C         1.4418522523       -0.7122167927       -6.2204259448
 C         0.0512447365       -1.4251371217       -6.2762214206
 C        -1.0456104446       -0.5854986369       -5.5865998287
 C        -1.9196193633       -1.2740216741       -4.5749716071
 C        -0.3381828267       -1.7273549744       -7.6638783520
 C         0.2398608189       -2.8170404445       -5.5467763194
 O         2.3038403074       -0.8698796950       -7.0705098398
 O        -0.9851058278        0.6398153569       -5.6981835750
 C        -3.0227666656       -0.3592239657       -3.9639046251
 C        -2.7128596663        0.0901569849       -2.5486831927
 C        -3.3618785302        1.4547542706       -1.9410869633
 C        -4.2006665092        0.9730824562       -0.6792206775
 C        -4.7398066977        2.1281473310        0.2893917035
 O        -1.9347440803       -0.5524688842       -1.8307136817
 O        -4.5380764570       -0.1915240193       -0.6504782327
 C        -2.1360868957        2.3368818490       -1.5040657824
 C        -4.4451136330        2.0435938221       -2.9502474104
 C        -5.5095904136        1.7144740356        1.4746482059
 C        -4.9245370699        0.5023621464        2.2690851873
 C        -5.8967812825       -0.0244461240        3.4400717699
 C        -6.9358693103       -1.1733398384        2.6450695201
 C        -6.8403952301       -2.6752419612        2.7117832481
 C        -5.0374375237       -0.6511596771        4.5758674036
 C        -6.7309681975        1.0674305679        3.9527653915
 O        -3.7654616353        0.1047146551        2.1639737691
 O        -7.7999013551       -0.6197055668        2.0202645355
 C        -7.5053801113       -3.3405746729        1.4689221877
 C        -6.5699624973       -4.2451554218        0.6052459517
 C        -7.1399574129       -4.6759659487       -0.7658288790
 C        -8.6912777184       -4.6648360948       -0.8246708170
 C        -9.4492143526       -5.8019031352       -0.0724957089
 O        -5.4466755093       -4.5490855788        0.9460107305
 O        -9.3146999984       -3.7355943135       -1.2856199027
 C        -6.6137560962       -3.8540579655       -2.0121210716
 C        -6.4888639795       -6.1404333582       -1.1229872481
 H         1.5788563605       -3.6424318411        3.2280143564
 H         1.3274530827       -4.4357113833        1.6792473597
 H         3.0236883274       -4.2802127942        2.3905808930
 H        -1.3134711248       -0.0925059879        1.5186374478
 H        -0.4221880073       -0.3346562108        3.0384258801
 H         1.6593209857       -1.0038899551       -0.9153112839
 H        -0.0032898496       -1.8060411813       -1.0971587972
 H         1.5737506082       -2.7737619769       -0.9925698408
 H        -0.8474306564       -2.8262075041        2.1295898772
 H        -1.2790867864       -2.3854237127        0.4571953919
 H        -0.2248253005       -3.7926050666        0.8786422129
 H         0.0738649000        2.2249913445        1.5104264415
 H        -1.2965293713        2.0998375757        2.6405735832
 H         3.2201215645        3.1433176362        5.4482978259
 H         3.1167815813        2.0318614155        4.1859935399
 H        -0.2426291768        4.3452036918        1.9394378671
 H         0.4525289408        5.6140774802        2.9180152904
 H        -1.0557344907        4.9355322571        3.3944281039
 H         0.7364678064        5.0118508419        5.3333306699
 H        -0.6818364154        3.9711865032        5.3485323325
 H         0.8663643170        3.5017409738        6.0321975499
 H         5.5073711292        3.4242201849        4.3636187334
 H         4.5909609699        4.1452264716        3.0708026567
 H         5.9246553819        3.9806291472        0.2425751425
 H         7.4606855408        3.2437319617       -0.4218857748
 H         7.0462519658        3.9057390129        2.3988846923
 H         8.3468534294        2.9365732194        2.2371044238
 H         7.4772621240        3.0384778544        3.7543477224
 H         7.1260112048        0.3653390453        3.9344409437
 H         6.3293324518       -0.4577419447        2.6066776081
 H         8.0266698962        0.0148280323        2.4605091160
 H         5.8999172949        4.1102678139       -2.0497830815
 H         6.2342476255        2.3164487245       -2.2571390038
 H         3.2418036721        1.4748223446       -5.3001089526
 H         3.7808295440       -0.0547938208       -4.8019250992
 H         1.4946113397        2.8177841161       -1.4977565176
 H         1.2982454514        2.9668851165       -3.1818030043
 H         1.9610914654        4.3426978336       -2.2557603239
 H         3.4324719879        3.4168789203       -4.9422376179
 H         4.1448900277        4.3905040410       -3.7762332069
 H         4.8557768341        2.8626494218       -4.2311918750
 H         0.9452099567        0.8280744611       -4.7488690997
 H         1.4523844009       -0.7494127621       -4.1034699837
 H        -2.2725803749       -2.1646165215       -5.0024280071
 H        -1.2717213579       -1.5579821988       -3.7278085269
 H        -0.1588614226       -0.9049728557       -8.3663064580
 H        -1.3771688859       -2.0414142598       -7.7789805196
 H         0.3622594245       -2.4932386083       -8.0946239359
 H         0.5949939376       -3.4569901100       -6.3869492768
 H         0.9069329416       -2.8701929532       -4.7307231415
 H        -0.6606357405       -3.3223738930       -5.1344613339
 H        -3.1215182928        0.4389164349       -4.6460180639
 H        -4.0147177562       -0.7978164122       -3.8661911340
 H        -3.8810448192        2.7246984667        0.5239338673
 H        -5.3832754785        2.7701088828       -0.2747518016
 H        -1.5160649771        2.4083690428       -2.3431676474
 H        -1.7190382828        1.8232106018       -0.5981532452
 H        -2.4298373001        3.3372315992       -1.2096518212
 H        -5.2516394122        1.2754659141       -3.0599419260
 H        -4.9263440594        2.9704830549       -2.6086302648
 H        -3.9895190695        2.3207832884       -3.8904255900
 H        -6.4580246645        1.2980754873        1.2149991058
 H        -5.7226466886        2.5862985869        2.0617490802
 H        -5.7217926215       -2.8684651564        2.7467550536
 H        -7.2340510179       -3.1263979267        3.6639191617
 H        -4.7303298072       -1.6321583358        4.3471783527
 H        -5.5600356962       -0.7834565681        5.4801783975
 H        -4.0610505490       -0.2001344810        4.6236211165
 H        -7.3609862630        0.7138517064        4.7538870206
 H        -6.1410954341        1.9168521270        4.2901876599
 H        -7.4556480315        1.4232207362        3.2546091501
 H        -8.3488786726       -4.0368364280        1.7957044526
 H        -7.8903887521       -2.5831507322        0.9131838398
 H        -8.8109733608       -6.4173315585        0.6181214066
 H       -10.4360396977       -5.4369002421        0.3275984957
 H        -9.7845750501       -6.4417535529       -0.8247291288
 H        -6.9163095452       -2.7683255843       -1.8056472995
 H        -7.1027472600       -4.2454660905       -2.9340247965
 H        -5.5378211379       -3.9064420919       -1.9278758970
 H        -5.3959554288       -6.1835322535       -0.7729290225
 H        -7.0872938207       -6.9976739413       -0.7010130947
 H        -6.5844641384       -6.2200891489       -2.2130110827
 Na        3.7430071121        0.1844682722        0.1595449699
