155

 C         1.9251622615       -3.0399871240        3.0801737394
 C         1.9721407619       -1.9890632517        1.9370971905
 C         0.9414816792       -1.9577865975        0.7144343604
 C         0.4220245132       -0.4721806250        0.7909338816
 C        -1.0246238580       -0.1657074687        0.9855193175
 C         1.7346724030       -2.2234151924       -0.5644902224
 C        -0.0886055314       -3.1661715116        0.9650443892
 O         2.9920074632       -1.3021262745        1.8894934113
 O         1.2031854386        0.4325806643        0.5228297855
 C        -1.1746361122        1.0689521400        1.9432293550
 C        -0.8442734620        0.7306893149        3.4121080745
 C        -0.8518310341        1.8553298522        4.5118476545
 C         0.5776880504        2.6662703415        4.4771845473
 C         1.7927109525        1.9412342361        5.0368732765
 O        -0.2067487995       -0.3389469569        3.5866108762
 O         0.4920247106        3.8047013556        4.1476243496
 C        -1.9667722179        2.8104689268        4.1645392031
 C        -1.1402101653        1.3606508080        5.9974416754
 C         3.1160889346        2.6519530172        4.7531926014
 C         3.7815763829        2.2832496338        3.4107435443
 C         5.4916603518        2.1997557671        3.3100645914
 C         5.8739483770        2.0525786307        1.8825842301
 C         6.1164350452        3.4908135097        0.9905899709
 C         6.1422474874        3.3547611350        4.1263558567
 C         5.8623942804        0.8610711742        3.9870885632
 O         3.1971088381        2.1286906169        2.3648300641
 O         5.8858385473        0.9449723914        1.4033995835
 C         6.1320957651        3.3007731464       -0.5178472490
 C         4.8260737181        3.6685480104       -1.1828197593
 C         4.5079020741        3.1619400315       -2.5827666308
 C         3.7604305957        1.6847189648       -2.5254115982
 C         3.5541732896        1.0910652610       -3.9784174538
 O         3.9658325554        4.3907434960       -0.6107422533
 O         3.3429139569        1.0555396663       -1.5666929297
 C         3.5789645961        4.2282415554       -3.1773963025
 C         5.7828217192        2.8077668042       -3.4375977578
 C         2.3738511520        0.1219521523       -4.1009036237
 C         2.1539400726       -0.1575371797       -5.6108606946
 C         0.7920534052       -0.9897355686       -6.0677761485
 C        -0.5081750587       -0.5135847819       -5.3677230795
 C        -0.8488468644       -1.3548990818       -4.0226435716
 C         0.6480375648       -0.7989161438       -7.6884042744
 C         1.0779840685       -2.5180011078       -5.8140661115
 O         2.8536643776        0.2237320034       -6.4712148701
 O        -1.3453925180        0.2435819483       -5.8416779117
 C        -2.1722515762       -0.9405680833       -3.3085107439
 C        -2.3265587306        0.5760834083       -3.3130608665
 C        -3.7858676032        1.1310832877       -3.4909634933
 C        -4.3751480607        0.9368519048       -2.1163483426
 C        -5.0674580146        2.0987946082       -1.4366017669
 O        -1.3904448370        1.2718852381       -3.0028904661
 O        -4.3172705029       -0.1751092786       -1.6148382312
 C        -3.6215734355        2.6615911460       -3.8729442439
 C        -4.6751693127        0.4409837195       -4.5327342754
 C        -6.0093905305        1.8539116029       -0.2218634313
 C        -5.3243647787        1.3033617283        1.0542611209
 C        -6.3370536214        0.7237489625        2.2458568967
 C        -6.8924262450       -0.5390681931        1.6303111398
 C        -5.9298903476       -1.4434240332        0.9866801089
 C        -5.5281478013        0.4632393312        3.5360143998
 C        -7.4980351752        1.7217628298        2.5096347415
 O        -4.1274086629        1.0970668218        1.2402333662
 O        -8.0787376153       -0.7537890040        1.6419101386
 C        -6.3359792034       -2.9548665521        1.0590939686
 C        -5.5252902753       -3.9344946706        0.1867103948
 C        -6.2197153214       -5.1270337426       -0.5728870840
 C        -6.6527049779       -6.3087079595        0.3251255998
 C        -5.6041388888       -7.1684657951        1.1215780989
 O        -4.3407880262       -3.8633301611        0.1122082972
 O        -7.8052137623       -6.6187919657        0.5422486693
 C        -7.6458990246       -4.6564356037       -1.2078780458
 C        -5.3498699351       -5.5846537097       -1.7234022617
 H         1.0121491210       -2.8638326723        3.6283991749
 H         1.8563373816       -4.0387102258        2.7003449883
 H         2.8177838766       -2.9384391563        3.6802063568
 H        -1.3539741014        0.1898980886       -0.0499887029
 H        -1.5042819632       -0.9820250902        1.2934121221
 H         1.8033758736       -3.3307358612       -0.9085364819
 H         2.8163817598       -1.9994587457       -0.4530709402
 H         1.2756350821       -1.6738951591       -1.3303711145
 H        -0.5709958930       -3.1831791574        1.9051417045
 H        -0.8674667689       -3.2121682583        0.1686673887
 H         0.4551363395       -4.1193230423        0.8511883817
 H        -0.6646921010        1.9537572217        1.6381489248
 H        -2.1748050162        1.3585807545        1.9381589122
 H         1.4928483781        1.6289460319        6.0403095404
 H         1.8323003415        1.0450037938        4.3219440040
 H        -1.7511891735        3.3725637686        3.2795490792
 H        -2.1631454798        3.4741739408        5.0041711285
 H        -2.8422523601        2.2237064171        3.9475888830
 H        -0.8120222307        2.0553631024        6.8222906327
 H        -2.1433510205        1.1569669798        6.2541393387
 H        -0.5002547913        0.4865304773        5.9634695496
 H         3.8430545404        2.2987081134        5.5706227552
 H         3.0828515805        3.8039174584        4.6717937104
 H         5.2128846326        4.0772672938        1.1576922897
 H         7.1085640549        3.8892387727        1.3936823682
 H         5.9364732100        4.3083991828        3.7537558934
 H         7.2793961663        3.2048633922        4.1687740958
 H         5.6375324737        3.1781545233        5.0831655003
 H         5.8053601210        0.9768378581        5.0694348358
 H         5.2392970762        0.1591383691        3.5421533715
 H         6.9192490402        0.7284483155        3.7420730184
 H         6.9520324203        4.0323631160       -0.7877592327
 H         6.5154446793        2.2392133948       -0.7111764117
 H         3.5086332865        1.9005462957       -4.6266925543
 H         4.5198263711        0.6449804063       -4.1872420604
 H         2.8443273820        4.5387363930       -2.4602290488
 H         3.1155502220        3.8760828939       -4.0554814655
 H         4.1658579036        5.0832694357       -3.5516944503
 H         5.5723274078        2.5578046500       -4.4793698585
 H         6.3668038405        3.6975456544       -3.5934424446
 H         6.3613024863        1.9359481577       -2.9904096522
 H         1.4619595410        0.5499378900       -3.7283627938
 H         2.4344477656       -0.8891141907       -3.6087117471
 H        -0.8543382070       -2.3945665459       -4.3751821022
 H        -0.1186286503       -1.3002575336       -3.1874051359
 H         0.7397897350        0.2753982472       -7.8800189874
 H        -0.3795972287       -1.1478971671       -7.9116292948
 H         1.4037410892       -1.4507181174       -8.1642199685
 H         2.0205468804       -2.7735532270       -6.2684232430
 H         1.1702233813       -2.7139550632       -4.7188883662
 H         0.2153050198       -3.0357974099       -6.1874797074
 H        -3.0455411377       -1.5108069276       -3.7545276401
 H        -2.2422898688       -1.2684700752       -2.2622121854
 H        -4.3450277968        2.8293286255       -1.1788705281
 H        -5.6703705878        2.5682605912       -2.2742489716
 H        -3.6562275765        2.7139978951       -4.9503897171
 H        -2.6760657182        3.2051039724       -3.5141628607
 H        -4.5072576967        3.2066423115       -3.6074366972
 H        -5.0047716161       -0.4678107076       -4.1322278225
 H        -5.5257552041        1.0700052742       -4.7700759733
 H        -4.1807664832        0.3364772012       -5.5133581916
 H        -6.7177962760        1.1049117822       -0.5784886063
 H        -6.6560889474        2.7374914730       -0.0673108864
 H        -5.8437801306       -1.0612048713       -0.0635442120
 H        -4.8515056916       -1.3579721377        1.4280020274
 H        -6.2409927025        0.4377374659        4.3912882155
 H        -4.9544891623        1.3238184777        3.7944988618
 H        -4.8567468190       -0.4368802948        3.4426125578
 H        -8.0710894497        1.3946703670        3.3570993216
 H        -7.0003596117        2.7098575350        2.6572316236
 H        -8.2042900343        1.9215806200        1.7427169742
 H        -6.3017518185       -3.3765358287        2.0843861551
 H        -7.4688407483       -3.0538506567        0.8743561404
 H        -6.0328673054       -8.1357655316        1.4803723950
 H        -4.6870191202       -7.4037517261        0.5459338895
 H        -5.2600420550       -6.5339878729        1.8932888753
 H        -8.4704779234       -5.1948226579       -0.6967723762
 H        -7.6646779906       -4.8013842100       -2.3103735213
 H        -7.7731089649       -3.5484740327       -1.1616341267
 H        -5.9506172423       -5.5965759973       -2.6467008682
 H        -4.4790152192       -4.9304874547       -1.9690877887
 H        -5.0345189667       -6.5614599172       -1.4943560893
 Na        3.5941755020        0.5381939869        0.5969037492
