155

 C         1.9781142017       -3.1488122343        3.1022410961
 C         2.1142608301       -1.9971260376        2.1129708510
 C         1.0227461200       -1.8680215007        0.9378723587
 C         0.4065596371       -0.4623278959        0.8235031183
 C        -1.0753960644       -0.2587520536        0.9480631600
 C         1.7042644845       -2.0496533366       -0.4660359567
 C        -0.0861758208       -2.9144792578        1.1208375562
 O         3.0108331512       -1.2047310272        2.2794678986
 O         1.0314339214        0.5296686569        0.4966742893
 C        -1.4007942940        0.8483738129        1.9500705208
 C        -0.7582483147        0.5508056197        3.3329458991
 C        -0.7918337653        1.6759708257        4.4732211651
 C         0.4610674946        2.5699692188        4.4024951651
 C         1.7764577719        1.8114030065        4.8877698963
 O        -0.3013839907       -0.5129626157        3.5641678949
 O         0.6121891607        3.7074451978        4.0050893804
 C        -2.0287578308        2.7080195299        4.2794386944
 C        -0.8806377215        0.8067540797        5.7439962015
 C         3.0440058947        2.7510771875        4.8952866362
 C         3.7731584093        2.2904267318        3.4529899889
 C         5.3635664977        2.1230326981        3.3793640650
 C         5.8087406704        2.1728131951        1.8679914629
 C         6.2255024317        3.4885393704        1.2605496035
 C         6.0144900825        3.3035235682        4.1315455115
 C         5.5806333748        0.8850419463        4.2986796963
 O         3.1869324758        1.9718580514        2.4569769119
 O         5.5876078661        1.1595050292        1.1732025205
 C         6.1780291461        3.3500852319       -0.2970553705
 C         4.7518820584        3.6385985181       -0.9476239589
 C         4.5789831417        3.2329964182       -2.5563061552
 C         3.7756733821        1.8353015436       -2.6342203395
 C         3.5757716488        1.0163386298       -4.0378942894
 O         3.9310853801        4.2920101256       -0.4342306050
 O         3.2711976400        1.3612775204       -1.6440901039
 C         3.8114074857        4.2394097165       -3.4054270609
 C         5.9975980107        3.0118334657       -3.1530751940
 C         2.4774914167       -0.0217881942       -4.1066126211
 C         2.0002608851       -0.2024999439       -5.6647780250
 C         0.7661551044       -1.0721620815       -6.1046785498
 C        -0.5028753795       -0.7038292794       -5.3019206543
 C        -0.7628136965       -1.2325966704       -3.8778022450
 C         0.5515474778       -0.7113572571       -7.6340075550
 C         1.2652354914       -2.5854143079       -5.9016472559
 O         2.7842951305        0.3406894156       -6.4649215419
 O        -1.3288996030        0.0393797507       -5.7823722550
 C        -2.0883348786       -0.8410474990       -3.3172073628
 C        -2.3256124066        0.7031186958       -3.3620068453
 C        -3.7993481379        1.1472269522       -3.6736594062
 C        -4.5026446198        1.0074739347       -2.2458883382
 C        -4.9512568427        2.2047652979       -1.3611234722
 O        -1.4406930023        1.4967445558       -3.0668894360
 O        -4.7087627837       -0.1219671857       -1.8216720762
 C        -3.7579193587        2.6037457695       -4.1254200836
 C        -4.4241779172        0.3367951305       -4.8074428097
 C        -5.9954849177        1.8788088387       -0.2776607963
 C        -5.3202253863        1.4225953727        1.0042295139
 C        -6.3342012702        0.7507018635        2.0259391026
 C        -6.8510798443       -0.6730515381        1.5311719250
 C        -5.8786198472       -1.7520475192        1.0760541885
 C        -5.6123500345        0.5415893749        3.4212350420
 C        -7.5608910677        1.7641349979        2.1873627752
 O        -4.0914033772        1.3774685914        1.1183031175
 O        -8.0070967621       -0.9430760553        1.7051961309
 C        -6.5073706617       -3.1227150140        0.9537318467
 C        -5.5848470910       -3.9552784506        0.0625175376
 C        -6.2146396448       -5.1230461457       -0.6261938777
 C        -6.4517721449       -6.2442586146        0.5184088198
 C        -5.1756090959       -6.5573761005        1.2429243385
 O        -4.3682590361       -3.7359158215       -0.0097136866
 O        -7.5428572237       -6.7234400434        0.7735739636
 C        -7.5266977859       -4.7391417733       -1.3627231468
 C        -5.2596867792       -5.7631517464       -1.7126236828
 H         0.9813574422       -3.2510235659        3.5154244608
 H         2.2061157468       -4.0653546719        2.5670122386
 H         2.7226865252       -3.0614903748        3.8781695873
 H        -1.4905902076        0.1598407781        0.0497651711
 H        -1.5716670495       -1.2590579686        1.3537586442
 H         2.4572096196       -2.7673533060       -0.4082185767
 H         2.3017313941       -1.1449595923       -0.7192396115
 H         0.9844512042       -2.4406681604       -1.2926090998
 H        -0.6074062533       -2.7433216552        2.0972234752
 H        -0.8094291935       -2.9160538684        0.2944813492
 H         0.3563186697       -3.8894272695        1.2276112565
 H        -0.9783248174        1.8357903427        1.5909908142
 H        -2.5373896586        1.0106429042        1.9066302114
 H         1.4369697976        1.3930557767        5.8401944129
 H         1.8967814730        0.9850086131        4.2414554366
 H        -1.8864433435        3.3460624038        3.3704370851
 H        -2.1312921695        3.3903448558        5.0985441632
 H        -2.9386060626        2.1484639220        4.1210469205
 H        -0.9306486543        1.4001371760        6.6509212669
 H        -1.9415799358        0.4523902430        5.6395700698
 H        -0.1474125029       -0.0282445187        5.7984792887
 H         3.6001789769        2.6203897703        5.7891800099
 H         2.7137002514        3.7355396291        4.7985582517
 H         5.4043925596        4.2260800776        1.5524157161
 H         7.1753542919        3.5842857633        1.7453681417
 H         5.7633285710        4.2096066170        3.5472036050
 H         7.0485343700        3.1483407890        4.0000090912
 H         5.7811344282        3.3667121114        5.2022110758
 H         5.2984722927        1.2307882960        5.2706964760
 H         4.9938843677        0.1120939167        3.8261235723
 H         6.6355980172        0.7104120347        4.3938222047
 H         6.9392350351        3.9775486433       -0.7573464840
 H         6.3893461034        2.3134674717       -0.4890632917
 H         3.4559868095        1.8123468259       -4.8219661361
 H         4.5750501161        0.6198440043       -4.2005938502
 H         2.7670831453        4.3652068956       -3.0938028968
 H         3.8765633662        3.9478051619       -4.4942325717
 H         4.3023995718        5.1951856988       -3.3904743550
 H         5.8653892121        2.8195840141       -4.2268115218
 H         6.5401226920        3.9925575793       -3.1840171979
 H         6.5422311674        2.1612348500       -2.8142313870
 H         1.6167750444        0.2622034930       -3.4819929405
 H         2.7219329610       -1.0070038638       -3.8361663782
 H        -0.6043262880       -2.3027289702       -3.9266949681
 H        -0.0197307621       -0.9065947022       -3.1735816123
 H         0.0736429364        0.2523658215       -7.5868136335
 H        -0.1299049987       -1.4712292769       -8.0142487741
 H         1.4821900950       -0.8146715554       -8.1482105393
 H         2.2185515830       -2.6971473639       -6.4903727686
 H         1.3655372071       -2.7091101950       -4.8225896692
 H         0.4457099741       -3.2703023312       -6.1963126418
 H        -2.7586127921       -1.3667193439       -3.9299508863
 H        -2.2981259887       -1.1768344232       -2.3067726452
 H        -4.0212383592        2.2750287907       -0.7118951480
 H        -5.1304523391        3.1071459346       -1.8623838722
 H        -3.0742843546        2.7241698152       -5.0142534914
 H        -3.4293096021        3.2246064258       -3.3099331799
 H        -4.7566253578        2.9875200792       -4.4947310536
 H        -4.6211512129       -0.7380154164       -4.4344389641
 H        -5.3269445813        0.8577516682       -5.2081365725
 H        -3.7869528047        0.3565217517       -5.6582912055
 H        -6.6208651014        1.0513832836       -0.6254590409
 H        -6.7302301495        2.6484455641       -0.1795826015
 H        -5.3073968992       -1.4666031089        0.2213809619
 H        -5.1948159314       -1.9068792994        1.8207271385
 H        -5.6942182351       -0.4618806077        3.8587696581
 H        -6.1628244505        1.1790622146        4.1738417624
 H        -4.5807913278        0.8792674407        3.3366496933
 H        -8.4431496551        1.1469328202        2.4730321881
 H        -7.2602833593        2.4663587998        2.9317468163
 H        -7.9564577202        2.4169052622        1.3809460055
 H        -6.4703620273       -3.6988432071        1.8955229473
 H        -7.5424784063       -3.1511612538        0.6831413663
 H        -4.9758634733       -7.6020496405        1.0783980179
 H        -4.2918529871       -6.0793424553        0.8302536193
 H        -5.2485543056       -6.3116926917        2.3421097913
 H        -8.3902111656       -5.0448886609       -0.7829132211
 H        -7.5730588796       -5.1845244499       -2.3372464905
 H        -7.5387927279       -3.7027649712       -1.6424822312
 H        -5.6549623815       -6.0820534970       -2.6104892791
 H        -4.6274187346       -4.9540744125       -1.9488628937
 H        -4.6299057996       -6.5288670748       -1.2706699101
 Na        3.4171610809        0.5790532946        0.6976684600
