155

 C         1.9485054585       -2.6523690396        3.3264106843
 C         2.1635121183       -1.6964713441        2.1670222535
 C         1.1419308695       -1.9322850137        0.9789895959
 C         0.2883872350       -0.6392252809        0.7607343895
 C        -1.2478904725       -0.5110424267        1.1392932016
 C         1.8755293860       -2.1614046578       -0.3886669970
 C         0.2270680304       -3.1313831564        1.1310635539
 O         3.0183578327       -0.8213643943        2.1216932012
 O         0.8635373651        0.2850558883        0.2954231062
 C        -1.5600104197        0.5718999387        2.2053267105
 C        -0.7692846533        0.3225215495        3.4894106557
 C        -0.9394435029        1.1608260907        4.8004890865
 C         0.3268303087        2.2184977294        4.5992096096
 C         1.5719468281        1.8374264058        5.5042748617
 O         0.1036247053       -0.6017672053        3.4244805898
 O         0.3260126197        3.1139834978        3.8174935405
 C        -2.2224308227        2.0283108606        4.7428597793
 C        -0.9253672907        0.2207158181        6.1135488578
 C         2.9876919984        2.4413335996        5.0763520757
 C         3.4305848605        2.3905354202        3.5657394132
 C         5.0262576758        2.3776998213        3.4271099444
 C         5.4274923436        2.3155301642        1.9528017964
 C         6.2335832363        3.5114273304        1.3738266025
 C         5.7562458500        3.5459286585        4.3033691354
 C         5.3513359271        0.9306796880        3.9629086526
 O         2.6448165690        2.0298860264        2.7112378184
 O         5.4278543382        1.2389232109        1.3610845390
 C         6.2065414830        3.6712671719       -0.1516449034
 C         4.8841378023        3.2562939040       -0.7519465031
 C         4.8800167823        3.0671282129       -2.3723654913
 C         4.0345190842        1.6751849222       -2.6763449490
 C         3.5860307267        1.4991793396       -4.1012184172
 O         3.8854557661        3.0500726763       -0.1401693139
 O         3.7388529722        0.9491238807       -1.7741154346
 C         4.1553812900        4.3002105086       -2.9345581991
 C         6.2919804513        2.9107571328       -3.0321367002
 C         2.1602127098        0.9761125846       -4.2654625313
 C         1.9574481259        0.2976526944       -5.6868405492
 C         1.0073919299       -0.9985602143       -5.8147808328
 C        -0.3953684015       -0.6490232931       -5.0927643652
 C        -0.5687487353       -1.0488589538       -3.6863174546
 C         0.7435669813       -1.3913000341       -7.3414546708
 C         1.8735337811       -2.1381180932       -5.1806730357
 O         2.5227490626        0.8772894857       -6.6398974529
 O        -1.2198586962        0.0139409841       -5.7267870541
 C        -2.0462390583       -0.7829835810       -3.1730314310
 C        -2.4034636288        0.6879258526       -3.3227937547
 C        -3.7722199114        1.0466549505       -3.9548141046
 C        -4.8798929282        0.8914195978       -2.8109900866
 C        -5.1253610388        2.1055809822       -1.7798157557
 O        -1.6345825090        1.5716297312       -2.9211228290
 O        -5.6042967159       -0.0366829732       -2.8305327419
 C        -3.7927415006        2.5764667152       -4.2876307676
 C        -4.2756117128        0.1541037423       -5.0506703216
 C        -6.1222242021        1.7380894217       -0.6271368566
 C        -5.5604635731        1.5269461213        0.6891142041
 C        -6.5209769616        0.9116883639        1.7013471096
 C        -6.9734062954       -0.6278589979        1.2417815905
 C        -5.8817052385       -1.5704720499        0.7849088342
 C        -5.9027715293        0.8926231070        3.1384506319
 C        -7.8365268036        1.8478416876        1.7273287403
 O        -4.4405007973        1.6261308448        1.0430240990
 O        -8.1229461382       -0.9811183533        1.3257391987
 C        -6.3902625944       -2.8267041541        0.0480350893
 C        -5.3446907177       -3.8679112356       -0.4128693684
 C        -5.7496677928       -5.2876155073       -0.5443737937
 C        -5.7970463280       -6.0383640308        0.8667942797
 C        -4.4736786773       -6.1039586011        1.5579735078
 O        -4.2393968772       -3.3746885412       -0.7603929857
 O        -6.7684597117       -6.6240609948        1.3128413549
 C        -7.0788388571       -5.3897649395       -1.3365631801
 C        -4.6874533712       -6.0286576915       -1.3536459777
 H         0.9497064134       -2.4616948114        3.6791782822
 H         2.2145360001       -3.7245874991        3.1901478728
 H         2.5113905046       -2.2975173914        4.1874498850
 H        -1.7927113574       -0.1952204803        0.2919604432
 H        -1.6238902515       -1.5690204647        1.5239619555
 H         1.9496601250       -3.2654159864       -0.5708518034
 H         2.7620428014       -1.5961206761       -0.3957061693
 H         1.3501795228       -1.7355420016       -1.2245724226
 H        -0.2618258517       -3.2484736522        2.1173419015
 H        -0.5378103577       -3.1013276143        0.4382232099
 H         0.8610872512       -4.0557028909        0.9310071023
 H        -1.1739129301        1.4724632012        1.6546310342
 H        -2.6225537871        0.7559751365        2.3750394015
 H         1.2538686351        2.1642010608        6.4739730520
 H         1.6141933587        0.7419881423        5.6257356535
 H        -2.0977625570        2.8162133904        4.0490135755
 H        -2.6528837333        2.4087656302        5.7034657931
 H        -3.0683410444        1.4238204001        4.2883973787
 H        -0.9089336255        0.8212297092        6.9738063416
 H        -1.7300237340       -0.5804252666        6.0615289298
 H        -0.0042788948       -0.3419785797        6.1496199136
 H         3.6412833847        2.2318480203        5.8750940130
 H         2.8373819825        3.5475368107        5.3103125800
 H         6.0357631079        4.3477465000        1.9003186397
 H         7.2293156886        3.0572392196        1.5789379383
 H         5.5038391482        4.6267646781        3.9997727725
 H         6.8255637825        3.4004998762        4.2486467600
 H         5.4982983505        3.4737525484        5.3177520649
 H         5.1216544890        0.9254736093        5.0103922511
 H         4.7363213542        0.1667906473        3.3409695943
 H         6.3628564301        0.8310092153        3.6318675619
 H         6.5154302477        4.6651104025       -0.4451431209
 H         6.9299663586        3.0502791164       -0.6591271229
 H         3.7290711393        2.4623719966       -4.6163132588
 H         4.3618623290        0.7593099842       -4.4835167917
 H         3.3417815984        4.6157167401       -2.2419088067
 H         3.6352427498        4.0449955551       -3.8262727089
 H         4.7546659577        5.2286839556       -3.0620705530
 H         6.1868101394        3.0167086235       -4.1441189815
 H         6.8568275431        3.7349283406       -2.7128268576
 H         6.9651658992        2.0899449370       -2.8084527608
 H         1.4376709940        1.7865974015       -4.2563430376
 H         1.8875961965        0.2164547689       -3.4941097134
 H        -0.3673814738       -2.1231161833       -3.5993708452
 H         0.1406597912       -0.5941781865       -2.9935088119
 H         0.5459634373       -0.4878868337       -7.9025745842
 H         0.0215974561       -2.1544266284       -7.3894296325
 H         1.6963683256       -1.8534307027       -7.6995500402
 H         2.8619981298       -2.1289898377       -5.5901444423
 H         1.7921484164       -2.0734937419       -4.0709183600
 H         1.3004718843       -3.0387916089       -5.5286653072
 H        -2.6612373304       -1.3907016380       -3.8712159614
 H        -2.0925802650       -1.1393662095       -2.1291978329
 H        -4.1892531359        2.4537009689       -1.3064468397
 H        -5.6956426296        2.8648584637       -2.4332516082
 H        -3.0999160465        2.7988577423       -5.0673176208
 H        -3.6619299909        3.3235809446       -3.5010432943
 H        -4.8185119663        2.7985255370       -4.6575323833
 H        -4.6603913598       -0.7300043671       -4.5516907049
 H        -5.1908206494        0.6343266025       -5.3386136507
 H        -3.5987593717       -0.1699385398       -5.8969417012
 H        -6.8012777515        0.9277144574       -0.9537236071
 H        -6.9222570267        2.5240790421       -0.6278786651
 H        -5.2638390121       -0.9597157598        0.1202359333
 H        -5.2622724367       -1.7730146698        1.6895581723
 H        -4.9044118934        1.2849961741        3.0401686106
 H        -5.9629952252       -0.0195902035        3.7139760203
 H        -6.4850426690        1.5185450401        3.8258625367
 H        -8.5413179744        1.3625380128        2.4073576405
 H        -7.6591675384        2.8535584262        2.1689225954
 H        -8.2903043476        1.9106945113        0.7304467768
 H        -7.2775311175       -3.3085449293        0.6321233636
 H        -6.6887661037       -2.4692521412       -0.8859706787
 H        -3.5767323744       -5.7443990504        1.0847073501
 H        -4.5354604588       -5.5145276850        2.4830118686
 H        -4.2916654233       -7.1806266756        1.9359392986
 H        -8.0631404072       -5.2787759646       -0.8769704640
 H        -7.1014960643       -6.3281094457       -1.8372160814
 H        -7.1230450877       -4.6255557156       -2.0685069497
 H        -4.4378867894       -6.9647285295       -0.8397161242
 H        -4.9652117013       -6.2013895182       -2.3539939979
 H        -3.7950050242       -5.4345738055       -1.4669667836
 Na        3.0646203027        1.1872272315        0.6694859459
