155

 C         2.6484635081       -3.0314457457        3.0757671353
 C         2.4853676198       -2.0069993940        1.9239552316
 C         1.3048470522       -2.0931857886        0.7622000139
 C         0.3793906127       -0.6848484170        1.0407819539
 C        -1.0826096542       -0.7094631621        1.3189516432
 C         1.9287407122       -1.9311418347       -0.6531347708
 C         0.4938668908       -3.3357396604        0.8556748294
 O         3.4205710084       -1.2122154015        1.7262735324
 O         0.8730461520        0.4077067174        0.8827070122
 C        -1.4930329361        0.3240647597        2.4038936017
 C        -0.8797873878       -0.0020985488        3.7708079929
 C        -1.2588815541        0.9455452449        4.9525245120
 C        -0.2098221428        2.1167758043        5.0637370160
 C         1.2510139636        1.5849459442        5.3566836337
 O         0.0763282261       -0.7403614176        3.8733434003
 O        -0.3810019699        3.3269502177        4.9367209120
 C        -2.5855268556        1.6239553168        4.6941681386
 C        -1.3200803476       -0.0115129144        6.1667556601
 C         2.5000689267        2.5270050938        5.0748395733
 C         3.2577120324        2.3511483505        3.7743126887
 C         4.8583128656        2.2614988516        3.7380038845
 C         5.4590483312        2.1882252635        2.3224418264
 C         5.5686925874        3.4920539772        1.5692637527
 C         5.4910203428        3.4046782006        4.4989346210
 C         5.1735067322        0.8964996873        4.4837394086
 O         2.6466999217        2.1089036856        2.7732835357
 O         5.6352788645        0.9961825616        1.9840574607
 C         5.9777440699        3.4997417580        0.0700595951
 C         4.6550498635        3.5288167798       -0.7601669377
 C         4.6972865353        3.2180640798       -2.2803465605
 C         3.8698157385        1.8726252771       -2.5510409919
 C         3.7152114690        1.4831306718       -3.9832961342
 O         3.5734061106        3.5139594541       -0.1968811927
 O         3.6036256185        1.1305644694       -1.5907475094
 C         4.1350108499        4.4141150115       -3.0813730400
 C         6.1247467346        2.7583976990       -2.7758456347
 C         2.2694830296        1.7059734681       -4.5897082084
 C         1.9844894397        0.6101698220       -5.7490296597
 C         1.3066088178       -0.7363756390       -5.2712033579
 C        -0.1925926625       -0.4118811428       -4.7918289997
 C        -0.9224619864       -1.4118818900       -3.7890009939
 C         1.3218899575       -1.6622538232       -6.4391155119
 C         2.1870565733       -1.3288133559       -4.1081152692
 O         2.2507554852        0.8934459167       -6.8510698600
 O        -0.7896860260        0.5183793521       -5.1820146637
 C        -2.5311613375       -1.1540776746       -3.9001666414
 C        -2.7898166289        0.3218759599       -3.5589258753
 C        -4.1286551584        1.0499942913       -4.2387407006
 C        -5.1230952111        1.1261802728       -3.1560531906
 C        -5.2938783061        2.3515185162       -2.2498265196
 O        -1.9528998703        0.9090220519       -2.8565447842
 O        -5.9828097921        0.2722279752       -3.0802575301
 C        -3.6565770935        2.4564006524       -4.6768275991
 C        -4.7353734841        0.2665582334       -5.3491734179
 C        -6.2462886200        2.2046913784       -1.1041865959
 C        -5.7320499040        1.4287271731        0.0720402399
 C        -6.8391111493        0.6691181739        0.9659093939
 C        -7.3435988552       -0.7416706260        0.2025187290
 C        -6.1947865880       -1.5188709567       -0.5288085761
 C        -6.2047325422        0.3300398936        2.2850931288
 C        -8.0205916646        1.6334490031        1.2962857743
 O        -4.5472549284        1.4026820886        0.3670576293
 O        -8.5260596056       -0.9957655841        0.2357932453
 C        -6.3424064046       -3.0613290623       -0.6027259909
 C        -4.9733112752       -3.7669398016       -0.5279783834
 C        -4.9613210778       -5.3292715859       -0.3126885116
 C        -4.7428367319       -5.5324986976        1.2909208852
 C        -3.3599734233       -5.2013767881        1.8779078922
 O        -3.9145402669       -3.1560620683       -0.6506721360
 O        -5.7784442700       -5.7334179611        1.8779264898
 C        -6.1884267272       -6.0400044033       -0.8686235106
 C        -3.6735786594       -5.8522441882       -0.9761163469
 H         2.5066909098       -2.5227385634        4.0282167294
 H         1.8757840359       -3.8001817298        3.0381413291
 H         3.6874960971       -3.3346929956        3.1230651980
 H        -1.7031614652       -0.6750447298        0.4432768776
 H        -1.4578478832       -1.6795282466        1.7250188000
 H         2.2427867876       -2.8713584787       -1.0477043603
 H         2.8800269968       -1.4236947613       -0.4254040674
 H         1.1745364071       -1.3510192675       -1.3594520586
 H         0.0204260861       -3.3373052800        1.8321046433
 H        -0.2575616016       -3.3946215005        0.0767122591
 H         1.1248726111       -4.2405235663        0.8244224871
 H        -0.8379734423        1.2118196452        2.0774465108
 H        -2.5662373531        0.5893596853        2.4181521600
 H         1.2204939572        1.5000168103        6.4292713220
 H         1.4210022940        0.6372428390        4.8711771980
 H        -2.6604525731        2.2171355655        3.7816185239
 H        -2.9092359617        2.3108651501        5.4298709405
 H        -3.3559594080        0.8852754428        4.6091964787
 H        -1.7907859746        0.4482500106        7.0096676780
 H        -2.1087847920       -0.7901390178        5.9656858233
 H        -0.3548819908       -0.4729555368        6.4593386190
 H         3.0190620982        2.4876643444        6.0269698488
 H         2.1747109044        3.5143996938        5.1937762198
 H         4.6098855606        3.9414748723        1.7893716263
 H         6.1891446039        4.1499409750        2.1049259623
 H         5.4130409177        4.4706541274        4.1599883490
 H         6.5468002518        3.2501377744        4.4776160075
 H         5.3006900420        3.3584370464        5.5641409111
 H         4.8327637562        1.0197311631        5.4903652573
 H         4.6734861062        0.0885339977        3.9676737399
 H         6.2433139555        0.8277921202        4.5862773324
 H         6.6347449106        4.3067755628       -0.2912160049
 H         6.4393163262        2.6254626618       -0.3256659579
 H         4.5082499479        2.0550719786       -4.4889506931
 H         4.0254375676        0.4661687484       -4.1578509246
 H         3.1933176819        4.8159474707       -2.7214100557
 H         3.9431742841        4.1244456176       -4.1089267957
 H         4.8446942410        5.2027801559       -3.2441055707
 H         6.2494117453        2.5145375257       -3.8744688881
 H         6.8302647968        3.6047327594       -2.6761903030
 H         6.5215048609        1.8675815131       -2.3238688041
 H         2.1922801863        2.7343217365       -4.8799627596
 H         1.5379659042        1.5015178384       -3.8515203489
 H        -0.7257799710       -2.4765489272       -3.9259967252
 H        -0.5774392495       -1.1025157978       -2.7904903618
 H         1.0452880467       -1.2149613134       -7.4078178530
 H         0.6652369775       -2.5242718222       -6.2961260479
 H         2.4008075243       -1.9014996646       -6.4784418873
 H         3.0688663433       -1.8826266879       -4.4253445528
 H         2.4384830646       -0.5659680245       -3.4234220979
 H         1.6106839463       -2.0875063560       -3.5560843241
 H        -2.9458317951       -1.4282978284       -4.8319074884
 H        -3.0288789574       -1.8006198450       -3.1766159764
 H        -4.3819419442        2.6825934750       -1.8777592797
 H        -5.6878670894        3.1238625332       -2.9395496398
 H        -2.6360632826        2.3806903967       -5.0717269783
 H        -3.5793987590        3.2255558719       -3.9902274707
 H        -4.1602398112        2.8218051120       -5.6081542878
 H        -4.9684055414       -0.7361683154       -4.8586777619
 H        -5.7134001417        0.6965760841       -5.6162289071
 H        -4.1710944807        0.1742278189       -6.2147073831
 H        -7.1610692911        1.8027268638       -1.4712883294
 H        -6.3966602109        3.2452149893       -0.8028875640
 H        -6.1227067389       -1.1114617104       -1.5021798385
 H        -5.3572441802       -1.2371391620       -0.0138366124
 H        -6.1580396598       -0.6659762705        2.5860069035
 H        -6.6950125917        0.7305343727        3.1937072869
 H        -5.2131224935        0.6733976373        2.1837900344
 H        -8.7934014577        1.0623127504        1.8131646105
 H        -7.6360611215        2.3939950392        1.9198036321
 H        -8.5125880133        2.0612735391        0.4180262245
 H        -6.9808802725       -3.5466006361        0.1610692587
 H        -6.6980187442       -3.4587932530       -1.4728869627
 H        -3.2043773980       -5.4554480613        2.8938272323
 H        -2.5386947313       -5.7194900088        1.3979052951
 H        -3.1632762100       -4.1304828227        1.9006530736
 H        -7.1002228316       -6.2288147837       -0.2272440784
 H        -5.8564129398       -7.0467581427       -1.2226992299
 H        -6.5650248605       -5.6490014281       -1.8449828484
 H        -3.1040463281       -6.6018090044       -0.4348172665
 H        -4.0570689588       -6.4275915409       -1.8071210679
 H        -2.9927322323       -4.9842373214       -1.2886532634
 Na        3.2092252732        1.1559982610        0.8550745957
