155

 C         2.9737712659       -2.9682561607        2.8430694562
 C         2.5689463387       -2.0079801563        1.7416671597
 C         1.2424269387       -2.0654233491        0.9313623749
 C         0.2565581388       -0.7301524284        0.9772243390
 C        -1.3095178633       -0.9604025307        1.1335172444
 C         1.7500825232       -2.0251630800       -0.6327365054
 C         0.5046435358       -3.3911398105        1.1550919477
 O         3.3541701367       -1.0562440527        1.6243451490
 O         0.8208463706        0.3412108819        0.8336038142
 C        -1.8173023111       -0.0568378073        2.3880267162
 C        -1.0829022471       -0.0533701708        3.8043994121
 C        -1.4387284770        0.8973644259        4.9329260278
 C        -0.2580267009        1.9206617772        5.1079958135
 C         1.0988111219        1.3850951543        5.5868015503
 O        -0.2473584290       -0.9595940460        4.0070047993
 O        -0.3975829372        3.0732771529        4.7268791472
 C        -2.7138754691        1.6160833804        4.7301826880
 C        -1.6652613396        0.1165442354        6.3391326547
 C         2.2406275322        2.4066839101        5.5019530989
 C         3.0400206373        2.0434586702        4.1937759622
 C         4.6618027002        2.3792323642        4.2106405647
 C         5.1696445890        2.6460386316        2.6503112922
 C         5.2923829489        4.1223623883        2.2107068894
 C         4.9681666949        3.5096383984        5.1330135449
 C         5.2751449206        1.1014142148        4.7825775154
 O         2.5470370333        1.5545543121        3.2333341810
 O         5.3830046796        1.7986307880        1.8141246819
 C         5.6270103122        4.0908532165        0.6264702130
 C         4.3379434024        3.6050751725       -0.1927913540
 C         4.4696465463        3.3914114776       -1.7509258067
 C         3.6159084636        2.0713582450       -2.1511478822
 C         3.1787657205        1.9602696764       -3.5873278422
 O         3.2732181438        3.3457599494        0.3692023369
 O         3.4585901360        1.0841768565       -1.4361479611
 C         3.8243573642        4.5828422290       -2.4650093237
 C         5.8733936298        3.1835500431       -2.2918945355
 C         1.9948928053        1.0445922893       -3.8050518636
 C         2.0828430215        0.2817749214       -5.1295503710
 C         0.9903675631       -0.8092194112       -5.3917720753
 C        -0.4341111054       -0.2153020025       -5.1708473085
 C        -1.5693683988       -1.1665675419       -5.5347102493
 C         0.9974034839       -1.3086693108       -6.8632428613
 C         1.2730286621       -2.0349442079       -4.4038504806
 O         3.0387316689        0.3106688387       -5.8303610990
 O        -0.5971240492        0.8808270593       -4.7520043726
 C        -2.6017439039       -1.0867427553       -4.4009327963
 C        -2.8709715124        0.2304097369       -3.8285055788
 C        -3.8219309111        1.2282042964       -4.5612976809
 C        -5.0664418084        1.3491056768       -3.5294719879
 C        -5.0228889116        2.5173375100       -2.3692363916
 O        -2.5157030670        0.5963474738       -2.6686766272
 O        -5.9775646517        0.5756201221       -3.6262781046
 C        -2.9786066840        2.5670307225       -4.7242691479
 C        -4.5039030901        0.7636447831       -5.8741598742
 C        -6.1730025124        2.2508216959       -1.4505907576
 C        -5.8833156208        1.1863683696       -0.3964369557
 C        -6.9937556070        0.1775605608       -0.0595653371
 C        -6.9131169996       -1.1194117723       -0.9318463833
 C        -5.5173335225       -1.6723370988       -1.1951429536
 C        -6.7858643261       -0.1469082255        1.4152151053
 C        -8.4806544590        0.7498477677       -0.1804798205
 O        -4.8334805954        1.1490443391        0.1805584261
 O        -7.8917305255       -1.7484244943       -1.3008072035
 C        -5.3080328569       -2.7062803004       -0.1391665085
 C        -4.1435152500       -3.7062991515       -0.6047346990
 C        -4.1524086311       -5.2659300199       -0.0160625901
 C        -3.9188592246       -5.0018419601        1.6345241404
 C        -2.6204874345       -4.4008783436        2.0987478429
 O        -3.3524636457       -3.3747684153       -1.4917952416
 O        -4.7561060453       -5.0509348679        2.5180556896
 C        -5.4968576149       -5.9015375987       -0.2203870016
 C        -2.9362621479       -6.0482796713       -0.5007615390
 H         2.3314271498       -2.9555622314        3.7399115446
 H         2.9761811579       -4.0315434518        2.4429143406
 H         4.0430305891       -2.7903628393        3.0038386309
 H        -1.9267272691       -0.7174915764        0.3262952610
 H        -1.6349288766       -2.0111242273        1.5017050103
 H         2.1185057808       -3.0012224080       -0.9333366297
 H         2.5024505388       -1.2184338363       -0.6870147135
 H         0.9312127973       -1.5901843067       -1.3180459087
 H        -0.0260041322       -3.3243074012        2.1092680941
 H        -0.1238017685       -3.5911687192        0.3686043511
 H         1.2299683373       -4.2540295799        1.1780739572
 H        -1.6869975553        1.0722604227        2.1346817346
 H        -2.9438299437       -0.2041248333        2.4389660165
 H         1.0743128450        0.9570376988        6.5600177691
 H         1.3382676925        0.5313738616        4.9408771273
 H        -2.7075348367        2.4646323074        4.0822763870
 H        -3.2142995397        1.8185842072        5.6919377981
 H        -3.3729699485        0.8593935904        4.2434843152
 H        -1.6489975871        0.8892493194        7.0393431975
 H        -2.5949868991       -0.5603404905        6.3338049503
 H        -0.9046062217       -0.6199794112        6.6089128766
 H         2.9310272082        2.2712511641        6.3043894955
 H         1.8583591357        3.4115271118        5.2792398077
 H         4.4992378792        4.7159955769        2.4878419649
 H         6.2348925443        4.6057731191        2.6374881926
 H         4.1921201029        4.3313239511        5.0285052831
 H         5.9179442873        4.0251137058        5.1809966670
 H         4.7752795545        3.2723982339        6.1218997416
 H         4.6767796086        0.8528960735        5.6356312407
 H         5.3017393972        0.1964027912        4.1015153522
 H         6.2802173623        1.3647060837        5.0600267609
 H         6.0230577506        4.9526787654        0.1797106720
 H         6.2168050057        3.2052314317        0.4674904036
 H         2.8831113527        2.9083437775       -3.9802564043
 H         4.0191032919        1.5491316646       -4.2000546419
 H         2.6978258445        4.5693212509       -2.4615147616
 H         4.1590503374        4.5950485701       -3.4847908040
 H         4.1453271219        5.5591314300       -1.9909405066
 H         5.7771460348        2.9668888898       -3.3855406531
 H         6.4764234810        4.0540512575       -2.2969467004
 H         6.3731617772        2.4364579033       -1.6921729090
 H         1.0518645351        1.4089162524       -3.6351019074
 H         2.1017307253        0.3168670173       -3.0030697983
 H        -1.9982409029       -0.8432049342       -6.4905213850
 H        -1.2392698092       -2.1962869524       -5.7305171071
 H         0.6357706803       -2.3270219791       -7.0015201977
 H         1.9552821159       -1.2178572551       -7.3242706554
 H         0.2963973603       -0.7639220003       -7.5192017468
 H         2.2489097662       -2.3960857612       -4.4736278623
 H         1.2866321063       -1.8570656764       -3.3489920914
 H         0.6299654062       -2.8746974257       -4.6287800312
 H        -3.5312865938       -1.4275297604       -4.8607435084
 H        -2.3425578295       -1.7007382885       -3.6020743448
 H        -4.0463389763        2.4017324468       -1.9642014627
 H        -4.8904095824        3.5199128445       -2.7045011970
 H        -2.5693381854        2.5414431218       -5.7109860753
 H        -2.1495705056        2.7224669518       -4.1150763161
 H        -3.5813517665        3.4735670431       -4.5510633016
 H        -5.1678080482       -0.1136175641       -5.5877924075
 H        -5.1078022862        1.5633555133       -6.2425863997
 H        -3.8675671413        0.4497147625       -6.6160776345
 H        -7.0817855869        2.0536303586       -2.0303015972
 H        -6.2966791046        3.1299512473       -0.8590335883
 H        -5.4681255644       -2.1844519584       -2.1808915728
 H        -4.8421234537       -0.8533256990       -1.2142637345
 H        -7.4103439459       -0.9559511410        1.7251742163
 H        -7.0847654377        0.7716069188        1.9187164509
 H        -5.7788445893       -0.3478186454        1.7481601353
 H        -9.1448984573        0.0474564170        0.2666303856
 H        -8.6218311305        1.7117263146        0.3378289225
 H        -8.6521070936        0.9212747260       -1.2187101272
 H        -4.9695372028       -2.2496053201        0.7381606207
 H        -6.2212646208       -3.2644764453        0.0267635466
 H        -2.0445825982       -3.8656318678        1.4277423769
 H        -2.8396775265       -3.8093646929        2.9859989777
 H        -1.8824775118       -5.0894484483        2.5790942912
 H        -5.7918577403       -6.4885356733        0.7151094547
 H        -5.4454526818       -6.6033340603       -1.0523375851
 H        -6.2878462268       -5.1824927012       -0.2786446422
 H        -1.9585517470       -5.5351519654       -0.2844878558
 H        -3.0699057937       -7.0992174575       -0.3143823788
 H        -3.0718173074       -5.9761026507       -1.6419893542
 Na        3.3043803147        1.0354698210        1.0470242480
