155

 C         2.6996284220       -3.0472978269        2.8881406070
 C         2.5318153036       -1.9458281085        1.8092264416
 C         1.3171727137       -2.0487128144        0.8672010184
 C         0.4093066813       -0.6770727454        1.1313624073
 C        -1.1341781166       -0.8419304723        1.4023054927
 C         1.7084649368       -2.1440581338       -0.5906223114
 C         0.5079287095       -3.3282237683        1.1487702880
 O         3.3116461055       -1.0425565862        1.6523707455
 O         1.0216862609        0.3363639887        0.8307076277
 C        -1.7633968749        0.0117551598        2.4583608652
 C        -1.1174646894       -0.1950263945        3.7967534548
 C        -1.4692531966        0.8420215177        4.9094831479
 C        -0.2287783744        1.8203732954        4.9215643658
 C         1.0388658547        1.2355482505        5.5480705221
 O        -0.1664099302       -0.8897847075        3.9989559707
 O        -0.3546529905        2.9036332217        4.4504052342
 C        -2.7778770448        1.6290706728        4.6325070452
 C        -1.5436285870        0.1982815982        6.2667930605
 C         2.1952368890        2.1711979555        5.4666856311
 C         3.1064147598        1.9417917291        4.1347457060
 C         4.5673027031        2.5314250402        4.2228735674
 C         5.1033312252        2.7100307573        2.7641421853
 C         5.2728675009        4.1063569009        2.1635563383
 C         4.8122069591        3.7600788201        5.0628375179
 C         5.3606721193        1.2800098084        4.7265745682
 O         2.7076168864        1.3419476708        3.1461025892
 O         5.4197719258        1.6620225965        2.2113137162
 C         5.4181774016        4.2184212458        0.6474649848
 C         4.1678601357        3.6634095010       -0.0975317152
 C         4.2205557472        3.4588587451       -1.6431393008
 C         3.4013909184        2.2000373483       -2.0400331308
 C         2.9012919700        1.9142057917       -3.4224986419
 O         3.1129874385        3.5386632778        0.4943977915
 O         3.2230462237        1.3846417669       -1.1712725459
 C         3.7304337784        4.7980913786       -2.3148714617
 C         5.6778932098        3.1218305348       -2.0543029855
 C         2.3676001126        0.3802181667       -3.4351482120
 C         2.2580874018        0.0274422521       -4.9709812888
 C         1.0412403257       -0.8434315194       -5.5203419815
 C        -0.3181531503       -0.1410825684       -5.3229915710
 C        -1.6861084455       -0.9680503083       -5.6177953640
 C         1.3539690145       -1.0902576799       -7.0545557793
 C         0.9167013226       -2.2190721406       -4.7741825176
 O         3.1988046324        0.3238849785       -5.6884353117
 O        -0.4196255148        1.0089243344       -4.9398578276
 C        -2.6814730489       -1.1324566654       -4.4234352133
 C        -2.9232813393        0.2624140770       -3.7601372475
 C        -3.7189675483        1.3781501885       -4.5864271405
 C        -4.9999012771        1.4867098846       -3.5811467695
 C        -4.9017915339        2.4531026826       -2.3050888675
 O        -2.6402984481        0.4350465244       -2.6414996290
 O        -5.8683328805        0.6121459044       -3.6065654357
 C        -3.0268953818        2.6930743324       -4.7933883221
 C        -4.2741242729        0.8914394285       -5.9953639397
 C        -6.2293671448        2.3526275907       -1.4820602313
 C        -6.0175899256        1.2121237030       -0.4553984799
 C        -7.1136015323        0.1155750265       -0.1952476256
 C        -6.8348129925       -1.1643814312       -1.0778599436
 C        -5.4125088957       -1.7143432262       -1.3121154889
 C        -6.9625731064       -0.4659142053        1.2988093352
 C        -8.5451656847        0.5390426428       -0.4673915440
 O        -4.9727387064        1.2828345886        0.2120744103
 O        -7.7566225698       -1.8071035465       -1.5056165699
 C        -5.0561903757       -2.7606440985       -0.1952148765
 C        -3.9946576187       -3.7610640170       -0.6387800475
 C        -4.0607202477       -5.1443188669        0.1274710711
 C        -3.9292081509       -4.9163264121        1.6944960205
 C        -2.5598095903       -4.4353016515        2.1295016744
 O        -3.1477251804       -3.6235324724       -1.4840861922
 O        -4.8560387524       -5.0759110645        2.4486704756
 C        -5.4304035581       -5.8533674454       -0.0509026075
 C        -2.8387640410       -6.0099888092       -0.2913398168
 H         2.6041169029       -2.4752955056        3.7911067443
 H         2.0299600324       -3.8531171016        2.9079899801
 H         3.6478072963       -3.5305042288        2.8218297957
 H        -1.6465706930       -0.5085947047        0.4272337944
 H        -1.4001135015       -1.8605996567        1.6229950781
 H         2.6941839098       -2.6798644970       -0.6904955888
 H         1.7543529960       -1.1712795643       -1.0458486701
 H         0.8964785280       -2.5337767983       -1.0588748461
 H         0.3226839791       -3.4148473694        2.2272007320
 H        -0.4395745074       -3.3109993842        0.5112895053
 H         1.0069933316       -4.2100475824        0.8361245440
 H        -1.6914128722        1.0033054243        2.1770112585
 H        -2.8044764542       -0.1959943974        2.6108394344
 H         0.7788141901        0.8653713808        6.5803386956
 H         1.2634113721        0.2819477445        5.0679879874
 H        -2.6985881522        2.1672987895        3.6920948402
 H        -2.8568496449        2.3764711830        5.4012179189
 H        -3.6664074082        1.0373262495        4.6207094894
 H        -1.5078297964        0.9357438229        7.1445759849
 H        -2.4821365461       -0.2824527894        6.2675328923
 H        -0.8260058521       -0.6095113490        6.3954353521
 H         3.0488969740        1.9839077021        6.1988560869
 H         1.7379511177        3.1522359003        5.3087936016
 H         4.2981691605        4.7128963423        2.3577391849
 H         6.1029818870        4.6923352303        2.4918029066
 H         4.3908745964        4.6664173689        4.7796005013
 H         5.8953190375        3.8952297998        5.1056947811
 H         4.6082990374        3.7305257594        6.1668543289
 H         4.9253866212        0.8741635812        5.6353573495
 H         5.2171231052        0.5025711065        3.9902524057
 H         6.3993246316        1.5411872008        4.8625814914
 H         5.3937106300        5.2996050497        0.3690164352
 H         6.2395545416        3.5933340668        0.2663936011
 H         1.9933431592        2.4967652354       -3.7094914494
 H         3.6565482589        2.0038665418       -4.1981718362
 H         2.6613581260        4.8648279097       -2.2899756956
 H         4.0811877471        4.9449647360       -3.3582984521
 H         4.1911614716        5.6106606140       -1.7862541426
 H         5.6891054183        2.9908133782       -3.1024425943
 H         6.2995139319        4.0532511349       -1.9370230291
 H         6.1125434776        2.3166088966       -1.4136824628
 H         1.3819171596        0.1875976455       -2.8809546479
 H         3.1269669636       -0.2832451699       -2.9588028398
 H        -2.1962252308       -0.4888882913       -6.4538780738
 H        -1.4389354030       -1.9324598510       -6.0176928815
 H         0.5283701204       -1.4791189942       -7.6519400339
 H         2.2140595782       -1.7809006314       -7.2156153342
 H         1.5408765515       -0.1637002779       -7.5626524434
 H         1.8417417237       -2.8342110376       -4.7328460243
 H         0.7620473719       -2.1223737400       -3.6926379825
 H         0.1740155194       -2.8707840419       -5.1861424402
 H        -3.5799278815       -1.5623240553       -4.8857075137
 H        -2.2536968338       -1.7965152103       -3.5957098934
 H        -3.9372474921        2.2438263905       -1.7597348421
 H        -4.5345305229        3.4502543633       -2.6714010730
 H        -2.0790132906        2.7462977732       -5.3553259710
 H        -2.7874175452        3.2010959580       -3.7935655659
 H        -3.8001136318        3.3421606511       -5.1631554186
 H        -4.7093273141       -0.0821775015       -6.1040977954
 H        -5.0167116079        1.7039223868       -6.1639813180
 H        -3.5105488554        1.0698776802       -6.8616216400
 H        -7.0438041898        1.9463800780       -2.1206706986
 H        -6.5683375113        3.2871170788       -0.9046118707
 H        -5.4154861027       -2.2681856501       -2.2362664958
 H        -4.6164751501       -0.8780809597       -1.4315772978
 H        -7.8047533033       -1.1830814986        1.5367258280
 H        -6.9634002097        0.2542269826        2.1154551317
 H        -6.0128003248       -1.0419986071        1.2813033077
 H        -9.1906038952       -0.3200890575       -0.2476669571
 H        -8.7929043690        1.3129840683        0.2397524170
 H        -8.6324829906        0.9033310401       -1.4860690664
 H        -4.6210184998       -2.1562649637        0.6790165176
 H        -5.8944370762       -3.4320234360        0.1386698133
 H        -2.3795869949       -3.4283337255        1.6647447245
 H        -2.4266499492       -4.3570470066        3.1963189113
 H        -1.6669161664       -4.9690337491        1.8926412355
 H        -5.2943995543       -6.8576180087        0.2433618378
 H        -5.6929759338       -5.8558684679       -1.1125759245
 H        -6.2146632117       -5.5425887377        0.6677845181
 H        -2.0238740773       -5.3755556781       -0.6209057500
 H        -2.5659597070       -6.4664332115        0.6779026666
 H        -2.9958120587       -6.7650551856       -0.9760855826
 Na        3.1102388589        1.1125434809        0.9407087032
