155

 C         1.9501413955       -2.9837611100        3.3632361770
 C         2.2609714720       -2.1228179087        2.1148213920
 C         1.3396213882       -2.0258975592        0.8096177196
 C         0.5312415115       -0.6370045035        1.0918085686
 C        -0.9724211400       -0.5780737958        1.0249959630
 C         2.3351105584       -1.9423185664       -0.3252908216
 C         0.3581669689       -3.3517550634        0.6232032778
 O         3.2751734227       -1.5022986890        2.1303079457
 O         0.9684584896        0.4174256733        1.5374298909
 C        -1.5322555199        0.3503225084        2.1743198255
 C        -1.1313550752       -0.2506419340        3.5718388755
 C        -1.3098269537        0.7721719326        4.7913900183
 C         0.0838110528        1.5487203251        4.8047939491
 C         1.1527663438        1.4509515495        5.9625187029
 O        -0.6492797894       -1.3713335705        3.6239476522
 O         0.3412278909        2.3508032624        3.9081217156
 C        -2.4019124081        1.8803603298        4.3574077776
 C        -1.3613507115       -0.0255252105        6.0650639893
 C         2.2668987222        2.4649640380        5.8879068125
 C         3.0828469370        2.2397866859        4.5575261768
 C         4.4023523635        3.1084437301        4.5189183057
 C         4.6471449585        3.0381221569        3.0003880651
 C         4.3813756018        4.3454191488        2.3393873809
 C         4.2412711911        4.5663304123        5.1088679369
 C         5.5961520518        2.3998679122        5.2558802454
 O         2.9374583988        1.2790813052        3.8735089340
 O         5.0335241262        2.0419706351        2.4626386067
 C         4.5703762373        4.4810889184        0.8278316173
 C         3.5620945271        3.5349975646        0.0414951012
 C         3.5437119538        3.4422069583       -1.5212763108
 C         2.8915623084        1.9207738087       -1.8300696719
 C         2.4958521880        1.5254323920       -3.2305869834
 O         2.7240747027        3.0211085924        0.7862344227
 O         2.9169944720        1.1322333140       -0.9300008897
 C         2.6231202427        4.5650829744       -1.9999579340
 C         4.9734971316        3.4984068300       -2.0879498392
 C         2.7149246586       -0.0367091528       -3.5789895441
 C         2.6537569869       -0.0596266538       -5.1583752034
 C         1.3600975632       -0.6756878031       -5.9168499305
 C         0.1097717773        0.1887759386       -5.6801260687
 C        -1.2392537450       -0.3490462292       -6.2044344373
 C         1.6117438132       -0.8173607095       -7.4615260148
 C         1.0823889650       -2.0940116391       -5.3760867104
 O         3.6046789608        0.3551334051       -5.7865083623
 O         0.2721281423        1.3011095203       -5.1782218911
 C        -2.3323502128       -0.5864155830       -5.0714777599
 C        -2.4673931363        0.5683866912       -4.1059714101
 C        -3.5631234962        1.8313184898       -4.4994402019
 C        -4.8238657770        1.5639022678       -3.4653001359
 C        -4.8910528848        2.4479948832       -2.2254236955
 O        -1.9310231355        0.4936203554       -3.0512447093
 O        -5.5552673175        0.5886852891       -3.5598564758
 C        -2.8996528323        3.1370814375       -4.4610161283
 C        -4.1037060223        1.6680745041       -5.9603717680
 C        -6.2497264304        2.1641658017       -1.5710949585
 C        -6.2098907048        0.8334804538       -0.5564516710
 C        -7.1731081232       -0.4121258864       -0.8103572726
 C        -6.3379506190       -1.4911857943       -1.6449669953
 C        -4.9124542541       -1.8197748043       -1.0782149381
 C        -7.5107976023       -1.0777996197        0.6212128548
 C        -8.5418309831       -0.2498472885       -1.6712138696
 O        -5.3903973306        0.8556199824        0.3755847109
 O        -6.8321747165       -1.9907199578       -2.6134934833
 C        -5.0504631648       -3.0182532766       -0.1515133374
 C        -3.7797850267       -3.8955652244       -0.2447432137
 C        -3.8692377641       -5.3887964824        0.4112121000
 C        -4.3400089965       -5.0938952286        1.9357675883
 C        -3.2407166797       -5.0897181403        3.0757651369
 O        -2.7391119019       -3.6426107930       -0.8699450663
 O        -5.4981011848       -4.8563650670        2.2154651835
 C        -5.1282288136       -6.1913530603       -0.2698054758
 C        -2.6587966487       -6.1980613119        0.2105185255
 H         2.8428060357       -3.0071916465        4.0005314336
 H         1.0813037966       -2.3898269521        3.8464676975
 H         1.6203351513       -4.0300885900        3.2694376510
 H        -1.2495796404       -0.0376041615        0.1252102073
 H        -1.3912237500       -1.6883912845        1.1275189021
 H         3.0838168265       -2.7851070721       -0.3643551087
 H         2.8600907331       -1.0022911733       -0.2411444546
 H         1.8696957129       -2.1200657137       -1.2863972740
 H        -0.1126377685       -3.6633929134        1.5952209643
 H        -0.4518101563       -3.3462326295       -0.0399389692
 H         1.0564140616       -4.1098771035        0.2780409211
 H        -1.1701180183        1.3697680931        2.1990067483
 H        -2.6718879349        0.4745771201        2.2735149442
 H         0.6437911644        1.6995822633        6.9260726385
 H         1.4404487439        0.4761650246        6.2027918741
 H        -2.0729835561        2.4359753389        3.5245626590
 H        -2.5002528022        2.5102287794        5.2969964617
 H        -3.4113965474        1.3900293373        4.2112442248
 H        -1.2765156864        0.5893137862        6.9568583144
 H        -2.2841647371       -0.7047683476        6.0383636653
 H        -0.4727255023       -0.6680819102        6.0777459541
 H         3.0051258973        2.3564977263        6.7117855413
 H         1.8486339001        3.3929620742        5.6405145499
 H         3.3002342423        4.5304513547        2.5789430756
 H         4.9421246311        5.1963463954        2.7882407671
 H         3.3419004962        5.1923000423        4.8950718045
 H         5.1354257830        5.2135461368        4.8292285448
 H         4.2020746006        4.4083724069        6.1353120128
 H         5.5557315445        2.5256529269        6.3345307587
 H         5.7296802320        1.3053879497        4.8929078311
 H         6.5092227421        2.8691752535        4.9061606700
 H         4.6322666311        5.4511240551        0.4653034222
 H         5.5233728784        3.9979243576        0.6354467287
 H         1.4423188340        1.8014243460       -3.3803243686
 H         3.1185052522        2.1654146285       -3.8800855281
 H         1.6054008565        4.1812567640       -2.1550084041
 H         2.9915388554        5.0149451470       -2.9012811361
 H         2.4934491674        5.2653106228       -1.1680471466
 H         4.8456242428        3.5141749623       -3.1397878013
 H         5.4081783357        4.3682188911       -1.6749096395
 H         5.4912706109        2.5583366172       -1.8440512113
 H         1.9173361985       -0.3758987630       -2.9970348283
 H         3.6785024944       -0.3222131016       -3.2104630898
 H        -1.6704284429        0.4467378538       -6.8550333767
 H        -1.1116816414       -1.2805378818       -6.7152471595
 H         0.9039057861       -1.4516715072       -7.9872684789
 H         2.5751763797       -1.2340045409       -7.7356496712
 H         1.6587017395        0.1461471778       -7.9542850114
 H         1.9934340889       -2.6750803813       -5.3781395881
 H         0.5819182262       -2.0658261234       -4.3718524745
 H         0.4241212324       -2.6856751981       -5.9786655338
 H        -3.1440761402       -1.0451593735       -5.5576662622
 H        -1.9045349308       -1.3770956190       -4.4713686893
 H        -4.1800987246        2.0017495560       -1.4716587487
 H        -4.6809850970        3.4909894036       -2.4082841583
 H        -1.8242477452        3.1125766096       -4.6967999905
 H        -2.9961423784        3.4972303813       -3.4204776678
 H        -3.2997179654        3.8475660281       -5.1296669832
 H        -4.5741511297        0.6532202545       -6.1143189871
 H        -4.8616410785        2.3752196157       -6.0630629240
 H        -3.3982790925        1.9036658590       -6.6812396259
 H        -7.0972899343        2.0502326775       -2.2345556379
 H        -6.5681512664        3.0014847617       -0.9364684534
 H        -4.3562743618       -2.0291033511       -2.0156802685
 H        -4.4424091371       -0.9048018368       -0.5849533517
 H        -7.8748985098       -2.0821555501        0.3205329118
 H        -8.2192532293       -0.5867280070        1.1944449865
 H        -6.6129510069       -1.2215138168        1.2369243649
 H        -8.9355776292       -1.2051281777       -2.0379362323
 H        -9.2954544598        0.3195067617       -1.0410251088
 H        -8.4078605169        0.3590354780       -2.5638638137
 H        -5.2919204078       -2.9242519304        0.8390277634
 H        -5.9216990991       -3.6472009992       -0.5251025148
 H        -3.6417592992       -5.2195584741        4.0166718512
 H        -2.4647446814       -5.8425583234        3.0812873121
 H        -2.6743347612       -4.1263478368        3.0926805266
 H        -5.3140967079       -5.7005040478       -1.2251099080
 H        -6.0229488319       -6.2964327005        0.3184532579
 H        -4.8145939614       -7.2183034929       -0.3965257589
 H        -2.3877081445       -6.7909806644        1.1329939378
 H        -2.8898523998       -7.0589616188       -0.4208013024
 H        -1.7895933523       -5.7179749050       -0.2360800286
 Na        3.1785996809        0.8038978321        1.3809951893
