155

 C         3.2018583553       -2.8631348744        3.0074801726
 C         2.6379362725       -1.7547267048        2.1200580645
 C         1.3374444759       -1.9871753044        1.1115039214
 C         0.2146249747       -0.8710441831        1.2998488395
 C        -1.1371963854       -1.4429177214        1.6441178840
 C         2.0192091160       -1.5679848330       -0.2617034100
 C         0.8354778675       -3.4869823622        1.0059944868
 O         3.2956291034       -0.7356176850        1.9718847636
 O         0.4288356331        0.2848916112        1.0559995699
 C        -1.8831970261       -0.3616141591        2.5456409353
 C        -1.2398291628       -0.2693353489        3.9634125886
 C        -1.8889486758        0.6837976350        4.9185107892
 C        -0.8499188563        1.8756899992        5.2213635181
 C         0.3704040458        1.3308101061        6.0367034019
 O        -0.0675355654       -0.5886698334        4.0204055725
 O        -1.0569938757        3.0234368582        4.8915947310
 C        -3.1464399949        1.3431879395        4.3604866970
 C        -2.2957667327       -0.0647569842        6.2348632099
 C         1.4697830429        2.3356703408        5.9719163906
 C         2.2087726505        2.3792257485        4.6436727388
 C         3.6779238446        2.9876026355        4.5407254773
 C         4.1475468475        3.1486793085        3.0807131971
 C         3.9816776868        4.5518024793        2.4612560421
 C         3.5145104951        4.4237683647        5.1765764545
 C         4.6632287221        2.2023347550        5.5049661216
 O         1.7258914776        1.8033309982        3.6685726181
 O         4.5218599443        2.1684840466        2.4406364684
 C         4.0286169512        4.5758564209        0.8400911153
 C         2.7433463485        3.9902703697        0.2216400557
 C         2.6139654187        3.6894275637       -1.2684437307
 C         3.4038590555        2.2711882668       -1.7394931501
 C         4.0279509381        2.2063378457       -3.1849899356
 O         1.8826421290        3.5745795976        0.9432605770
 O         3.3948279178        1.2696869168       -1.0111783157
 C         1.1524427390        3.2958101403       -1.5999335896
 C         3.1112553864        4.9228336861       -2.0388882248
 C         2.9183433992        1.9632018682       -4.2704577836
 C         3.0344761118        0.7072654079       -5.2711164081
 C         1.8050069878       -0.1484534840       -5.7911335276
 C         0.6821364245        0.8713092694       -6.1089051414
 C        -0.7438869366        0.4457532003       -6.3564594318
 C         2.2839224633       -0.8197980264       -7.0808344735
 C         1.5039498828       -1.2379147933       -4.7450722896
 O         4.1303416599        0.4199532509       -5.6758942446
 O         1.0757572065        2.0078024929       -6.3379724533
 C        -1.6421050756        0.1973038634       -5.1428709046
 C        -1.6015839271        1.3246663256       -3.9702061881
 C        -2.5175725247        2.6031980228       -3.9718567977
 C        -4.0105377589        2.1063660205       -3.8872092758
 C        -4.8751609500        2.3663278960       -2.6357737671
 O        -0.7715021196        1.2046375262       -3.0795000340
 O        -4.4681239893        1.5605840800       -4.8417802075
 C        -2.2723413578        3.4903557035       -2.7739971916
 C        -2.3242054118        3.4265786473       -5.2798289504
 C        -6.0089699447        1.3755271221       -2.4569824130
 C        -5.4076267848       -0.0198451695       -1.8715991517
 C        -6.3310171088       -1.2246071830       -2.1627329027
 C        -5.4584840074       -2.5558491400       -2.0232998368
 C        -4.6382852948       -2.9993302063       -0.7456135631
 C        -7.3773528338       -1.3387336314       -1.0490521643
 C        -7.0557065369       -1.1585474104       -3.5097538182
 O        -4.3778016723       -0.0517758373       -1.2610908478
 O        -5.4484854297       -3.1720377438       -3.0308958817
 C        -4.6994779518       -4.4978212582       -0.4614881229
 C        -3.9259690963       -4.7909098267        0.7856512317
 C        -3.9952179796       -6.1829800190        1.3281029504
 C        -5.4259937638       -6.6949169653        1.8329944742
 C        -6.0619712243       -6.2147407944        3.1475995147
 O        -3.1314390172       -3.9688925706        1.2234481669
 O        -6.0681818240       -7.4530924990        1.1244676902
 C        -3.4585743740       -7.1641048725        0.1426524621
 C        -3.0171911625       -6.2615774433        2.5281207511
 H         4.0358004358       -2.4607359968        3.5664349701
 H         2.4262683328       -3.3531746202        3.6221476723
 H         3.6903041594       -3.7175259653        2.4337043884
 H        -1.6004280993       -1.4622741966        0.6611113806
 H        -1.0757129079       -2.4210769927        1.9812222369
 H         2.8106498187       -2.2681827649       -0.4184576236
 H         2.3195405575       -0.5212684532       -0.4077264892
 H         1.3211313564       -1.8081077736       -1.0512239599
 H         0.6959576090       -3.8904027441        2.0314835509
 H        -0.1390088862       -3.5494728407        0.4321601516
 H         1.4850269164       -4.0685118407        0.4368930027
 H        -1.6298502339        0.5222500898        2.0131040829
 H        -2.9023969658       -0.5031274090        2.4544033411
 H         0.0830055151        1.0840005449        7.0480277800
 H         0.6919968290        0.4389234253        5.5146868517
 H        -2.9632226387        1.9379573387        3.4335341172
 H        -3.5363694003        1.9252647593        5.1694305742
 H        -3.9065618102        0.6631254612        3.9983220947
 H        -2.6907811573        0.6791874459        7.0076256076
 H        -3.0284378861       -0.7265265442        5.9194168547
 H        -1.5528365028       -0.6973775085        6.7175422634
 H         2.1125473379        2.4125057012        6.8301675588
 H         1.0497119021        3.3218910163        6.1684016218
 H         3.0642582419        4.9993030042        2.7099652752
 H         4.9001648293        5.1375601416        2.7211580992
 H         2.6206478874        4.8949512292        4.7850180854
 H         4.4139948597        4.9711419988        4.9660837196
 H         3.4586326084        4.3789348799        6.3068127882
 H         4.2888153868        2.1834140007        6.5445473423
 H         4.9277284380        1.0946907115        5.2840955857
 H         5.6515435918        2.6618840715        5.5031993153
 H         4.0927820060        5.7318726701        0.6676342602
 H         4.9104388199        3.9764544287        0.4866941527
 H         4.4457175690        3.1899231733       -3.3006527009
 H         4.8232647572        1.4763177218       -3.3672459888
 H         0.9599932394        2.3477903724       -1.1403113418
 H         0.9254594192        3.2071911344       -2.6730108945
 H         0.4665721412        3.9588466432       -1.0786727622
 H         2.4823535600        5.2170943574       -2.8618725822
 H         3.0475728445        5.8895649273       -1.4807166396
 H         4.1523807295        4.8711034424       -2.2792680970
 H         2.8727751858        2.8930064487       -4.8387172705
 H         2.0091362102        1.7658316647       -3.6781482353
 H        -1.1352563525        1.2725730920       -6.9433145504
 H        -0.7510821949       -0.4661190972       -6.9104867463
 H         1.3303279347       -1.1027473486       -7.5489783676
 H         2.8669599409       -1.7117786226       -6.8416959274
 H         2.9289756040       -0.2101075620       -7.6989593777
 H         2.4749481827       -1.7280215939       -4.5791203279
 H         1.1796512262       -0.7598576847       -3.8475460417
 H         0.7925385723       -1.9554993822       -5.2346287852
 H        -2.6896383010        0.0000013722       -5.4589026602
 H        -1.3609656984       -0.6744050663       -4.5320385510
 H        -4.1613128095        2.3412435524       -1.7731931087
 H        -5.1295759898        3.4527505447       -2.5426999266
 H        -1.2187224607        3.7550721740       -2.7188079003
 H        -2.5041144922        2.9657898456       -1.8197428089
 H        -2.9508802580        4.3595908351       -2.9386551639
 H        -2.3337034908        2.8172294641       -6.1914931931
 H        -3.0353493527        4.2048237461       -5.3114326164
 H        -1.3703892520        3.8941227353       -5.2783922766
 H        -6.3969062877        1.1259054263       -3.4964188193
 H        -6.8822267611        1.6936293770       -1.8295975490
 H        -3.5178474116       -2.8235993098       -0.9962836333
 H        -4.8707305381       -2.4319136611        0.1548650689
 H        -8.1257279584       -2.1827845941       -1.0850604273
 H        -7.8103681064       -0.3284263985       -0.8904912102
 H        -6.7629896900       -1.4717853711       -0.1416701177
 H        -7.5945597812       -2.0862299344       -3.7094872662
 H        -7.7448358348       -0.3486456155       -3.5660633093
 H        -6.3280670500       -0.8975998559       -4.3021308745
 H        -5.8536577716       -4.7683190651       -0.4553590804
 H        -4.1769260307       -4.9938953954       -1.2918113858
 H        -6.0694376090       -7.0700076922        3.8683844690
 H        -5.3872918149       -5.5436167962        3.6547344097
 H        -7.0751738727       -5.9734194005        2.9084079479
 H        -3.2438867905       -6.5684593689       -0.7230967368
 H        -4.2388332220       -7.7948012107       -0.2780453668
 H        -2.6149045619       -7.7228602044        0.5035945887
 H        -3.0330971826       -7.1695651150        3.0792608654
 H        -2.0069048873       -5.9409206491        2.2034672746
 H        -3.3441063206       -5.4745254676        3.1944510931
 Na        2.4855953990        1.3406869580        1.0577402259
