155

 C         3.1800350231       -2.7938553363        2.7348962476
 C         2.6095893611       -1.6271837685        1.8948365878
 C         1.3742438372       -2.0285042902        0.9170804022
 C         0.2611533640       -1.0033054447        1.2660026812
 C        -1.1250767755       -1.5391124562        1.6805602206
 C         1.8897144070       -1.7232484917       -0.6191311408
 C         0.9285332194       -3.5478729978        1.0571682666
 O         3.0191814439       -0.5295826137        2.1995385405
 O         0.3707882742        0.2434274367        1.2345903596
 C        -1.9353392335       -0.5999828192        2.6142800477
 C        -1.3363159871       -0.3274151913        3.9237548335
 C        -1.9975493969        0.6726477579        4.9412482975
 C        -0.9883120458        1.9870533099        5.3133081576
 C         0.1755227166        1.6632811699        6.2514500189
 O        -0.2754105269       -0.8749634257        4.2679539314
 O        -1.2290028152        3.0061579616        4.6893484914
 C        -3.2999742798        1.2090408853        4.4125057332
 C        -2.2485966986       -0.0897235615        6.2841300606
 C         1.4489234971        2.4357303285        5.9022825516
 C         2.1299942098        2.5086322836        4.4848407517
 C         3.6471150961        3.0682818649        4.5445369021
 C         4.1809987147        3.2287644405        3.1141169074
 C         4.3214936748        4.5733273973        2.3978897022
 C         3.6174199104        4.3850269165        5.3277563095
 C         4.6612741253        2.0568224492        5.1819973310
 O         1.7037286331        2.0397264504        3.4886078317
 O         4.5690063406        2.2209115034        2.5528523015
 C         4.1151447022        4.5183922465        0.8467586897
 C         2.8293549732        3.8490176935        0.3000784728
 C         2.7004457800        3.8053266298       -1.2495453673
 C         3.3387528110        2.4397876477       -1.7708321878
 C         3.9192285733        2.2894416863       -3.2224693082
 O         1.9124398245        3.6835913983        1.1060547655
 O         3.1825056487        1.4926130457       -1.0670855324
 C         1.1926460007        3.6982059087       -1.5976366501
 C         3.2657391278        5.0042730546       -1.9751161714
 C         2.6916620572        1.8115800132       -4.1461899076
 C         3.1338462228        0.7889371950       -5.0592515165
 C         1.9387625081       -0.0385871404       -5.6789509720
 C         0.7969799812        0.9969919222       -6.1863390441
 C        -0.6700028399        0.5160298450       -6.4055181744
 C         2.5014708908       -0.8353193113       -6.9325917188
 C         1.2912356651       -0.9879108835       -4.6433531945
 O         4.3432632166        0.6751536829       -5.2839980050
 O         1.0724571047        2.1108876393       -6.5103692080
 C        -1.7299210244        0.4743130281       -5.2821542686
 C        -1.5318246670        1.3921992444       -4.0393169873
 C        -2.4494399598        2.6860865274       -4.0240861292
 C        -3.9303834192        2.1874191438       -3.9395557296
 C        -4.7697265089        2.3351529173       -2.6744665622
 O        -0.8128857527        1.1019526865       -3.1041532124
 O        -4.4455240860        1.5877295210       -4.8839557015
 C        -1.9634171193        3.5787623746       -2.8574947489
 C        -2.1770081757        3.5306773972       -5.3003882682
 C        -5.9431920493        1.2916918249       -2.6143552155
 C        -5.3646742625       -0.0730341830       -2.0229118685
 C        -6.2569406360       -1.5345299270       -2.2879205141
 C        -5.3802823303       -2.7838859393       -2.2498668913
 C        -4.4585947024       -2.9330962020       -0.9975209273
 C        -7.2002466892       -1.4398769350       -1.0324533907
 C        -7.1369008060       -1.4611386110       -3.5874698024
 O        -4.3340075785       -0.0581818990       -1.3702432223
 O        -5.3491717163       -3.5857020699       -3.2140908705
 C        -4.8267924372       -4.3696580047       -0.3505515939
 C        -4.0014063853       -4.7922777346        0.8660301417
 C        -3.9558046007       -6.3788458385        1.4464817308
 C        -5.3740562916       -6.9506292832        1.7312425454
 C        -6.2502479332       -6.1812710432        2.8679610540
 O        -3.3944793745       -3.9342560289        1.4437567239
 O        -5.9185761098       -7.8511037287        1.1493218024
 C        -3.3227022103       -7.4249347901        0.4701894971
 C        -3.1926769595       -6.3857651282        2.7589789698
 H         4.1665440128       -2.5756485743        3.2273868745
 H         2.3704295642       -3.0408020978        3.4215631091
 H         3.3683581419       -3.7191267020        2.2267796368
 H        -1.8231561435       -1.6970316294        0.8297752136
 H        -0.9198427656       -2.5316435523        2.1847151669
 H         2.8497336892       -2.2307278213       -0.7369863811
 H         1.9617953624       -0.6549865625       -0.7583134532
 H         1.1684978633       -2.0503329276       -1.4209467278
 H         0.6686991103       -3.8460985935        2.0536791438
 H         0.1418626290       -3.7792931700        0.3395052524
 H         1.9466019192       -4.1112925365        0.8319809616
 H        -1.9002298090        0.3838602157        2.0239376438
 H        -2.9550384006       -1.0700236740        2.5381458710
 H        -0.2665590078        2.1259903303        7.1796653621
 H         0.3996837994        0.5833047290        6.4875103124
 H        -3.1766486027        1.7951873684        3.4978882720
 H        -3.9367337529        1.7674985917        5.1722085991
 H        -3.9216247692        0.3669239683        4.0267520307
 H        -2.8212902611        0.5559483721        6.9077183333
 H        -2.8105707920       -1.1034248565        6.2074903471
 H        -1.2965799833       -0.3877253935        6.7710523888
 H         2.2145941037        2.1798208356        6.6659023987
 H         1.2990010956        3.4428897826        6.3085281126
 H         3.4955942622        5.2626751485        2.7580156706
 H         5.3123710029        4.9503567722        2.5147868322
 H         2.7255294369        5.0015912937        5.0612502575
 H         4.5912807245        4.8922166415        5.1476663820
 H         3.4615112674        4.1720113694        6.3830690782
 H         4.4711906450        1.6078147314        6.1750553854
 H         4.8842471670        1.2446222485        4.5969282087
 H         5.6289448866        2.6090964961        5.1998415870
 H         4.0619171871        5.5058727575        0.5174905737
 H         4.9876352976        3.9488653396        0.5531515708
 H         4.4239891712        3.1911677739       -3.6028376441
 H         4.5965659965        1.4521542664       -3.3181381868
 H         0.7061673622        2.7599540842       -1.2948229153
 H         1.1258453567        3.7285926031       -2.6611971657
 H         0.6661225343        4.5328482383       -1.1251998840
 H         3.2968235869        4.9717257849       -3.0872788019
 H         2.7263299935        5.8917439065       -1.9308529055
 H         4.2655519458        5.2361397125       -1.5994874643
 H         2.6349332587        2.6580548754       -4.8317583245
 H         1.7564864235        1.5678187700       -3.6293615605
 H        -0.9807050817        1.1888442885       -7.2265816505
 H        -0.6097358903       -0.4883513319       -6.8885269237
 H         1.7975905299       -1.5623250074       -7.3072849873
 H         3.4166463755       -1.2756942878       -6.5585740471
 H         2.8482414878       -0.1441054190       -7.7248256211
 H         1.9809059942       -1.7860754347       -4.4355450342
 H         1.0120637456       -0.4283486185       -3.7101665417
 H         0.4923474178       -1.3593538559       -5.2169221363
 H        -2.7300938177        0.7926132750       -5.5723048991
 H        -1.9528878938       -0.5013021026       -4.8448231551
 H        -4.1041963359        2.2422573872       -1.8060431268
 H        -5.1491647511        3.3460437486       -2.4562436282
 H        -0.8856524262        3.6755396961       -2.8458053901
 H        -2.1602398080        3.0303954751       -1.9759968081
 H        -2.5445201033        4.4935452305       -2.8329865962
 H        -2.3417491336        2.9540259131       -6.1819507425
 H        -3.0249086916        4.2896168417       -5.4313806810
 H        -1.1621400658        4.0139807436       -5.3604280487
 H        -6.4977436625        1.1862402912       -3.5345447360
 H        -6.6086311139        1.6355612595       -1.8124524755
 H        -3.4704039995       -2.7867167353       -1.3076449704
 H        -4.7225518577       -2.1102386043       -0.2847828734
 H        -7.7460889498       -2.3229401768       -0.9880244170
 H        -7.9435377184       -0.6678202059       -1.2184919834
 H        -6.7416747499       -1.2629510635       -0.0821802106
 H        -7.7156938589       -2.3308243452       -3.8296850099
 H        -7.7758091650       -0.5549003556       -3.6134314827
 H        -6.4911392229       -1.1669835421       -4.3789314892
 H        -5.8134675001       -4.3070085744       -0.1791951052
 H        -4.6830591496       -5.0351097784       -1.1903976139
 H        -6.8934430699       -6.8212002636        3.4439283117
 H        -5.6111800360       -5.7740080221        3.6165236818
 H        -6.7889533129       -5.4885006873        2.2311302674
 H        -2.3463613094       -7.0686871286        0.0596611909
 H        -3.9464654983       -7.4558593345       -0.4073896747
 H        -3.2125054437       -8.3883262942        0.9627137717
 H        -3.5460689808       -7.2291527722        3.3882822328
 H        -2.1182718929       -6.3738472579        2.6512014435
 H        -3.5802272306       -5.5021123995        3.3557655489
 Na        2.3981829647        1.3358635607        1.3367310334
