155

 C         2.1795162415       -2.3832160773       -0.2669150875
 C         1.4436406779       -1.1398851093        0.1870403069
 C        -0.1058034604       -1.2359636831        0.1289621857
 C        -0.7703064995       -0.7030885335        1.5010514603
 C        -2.1612966868       -1.2326312692        1.7868772719
 C        -0.5453756218       -0.0769116982       -0.8900287119
 C        -0.5640930550       -2.6707852740       -0.2417484470
 O         2.0575219813       -0.0830902399        0.4399508366
 O        -0.3214256618        0.1722650682        2.1964435671
 C        -2.9290702574       -0.2200034268        2.6664964207
 C        -2.4268408331       -0.3493567759        4.0787754052
 C        -3.3157916965        0.3965499043        5.1893783016
 C        -2.5258617178        1.8134387256        5.3441607862
 C        -1.4993661795        2.0627408274        6.5218386006
 O        -1.4002863248       -0.9361725912        4.4333192991
 O        -2.8251706036        2.7813138933        4.6706452303
 C        -4.8001354516        0.8268945035        4.7614635917
 C        -3.3616317175       -0.3233434016        6.4592673170
 C        -0.1915096439        2.8649706600        6.0580344135
 C         0.6359993286        2.1252870761        4.9829862462
 C         2.2006287888        1.6386619216        5.3630480399
 C         3.1587350558        2.4837815153        4.5349577919
 C         3.4884286834        3.8748814366        5.0884729958
 C         2.4796107251        1.8156415816        6.9303625661
 C         2.3031923211        0.1022600156        5.1074903828
 O         0.2822537382        2.0834914569        3.8292761584
 O         3.4004675632        2.1214410020        3.3897812460
 C         3.9504500394        4.7355062980        3.8538734311
 C         2.6328041400        4.8033609104        2.9221138562
 C         2.8321967602        5.3182130330        1.4359909343
 C         1.7104021478        4.7692517413        0.5397664107
 C         1.1285021898        5.6655540242       -0.5716022657
 O         1.5959270045        4.5087523932        3.4071678364
 O         1.1873870012        3.6772099607        0.6477116427
 C         2.9711265330        6.8577850553        1.3364443952
 C         4.0902329828        4.6403008305        0.8453262976
 C         0.4953296056        4.9188739822       -1.7867107885
 C         1.5654308216        4.1035582792       -2.4685744350
 C         1.3465935254        3.2764764233       -3.8014259081
 C         0.1929796127        3.8949048396       -4.7353735997
 C         0.2894555982        3.8335947717       -6.2392245891
 C         2.8017841097        3.0872974248       -4.4486287347
 C         0.8830951395        1.9687124165       -3.1647913554
 O         2.6469713368        3.9553476971       -1.9774463741
 O        -0.7924760324        4.4092421537       -4.1843985376
 C         0.4143392188        2.4496425467       -6.8459261774
 C        -0.8829094232        1.6295206481       -6.9190985257
 C        -0.9072613121        0.2218565082       -7.5785211881
 C        -0.7551190182       -0.8385751572       -6.4378092858
 C        -1.6399058859       -2.0901918314       -6.4117667901
 O        -1.9220845666        2.1892329231       -6.6301597761
 O         0.0490677335       -0.5182957863       -5.5467536624
 C        -2.2615275572        0.1283376451       -8.3361013605
 C         0.2141590601       -0.0232473794       -8.6771265300
 C        -1.1563937854       -2.8493443107       -5.1253281862
 C        -1.9420685594       -4.1829535325       -4.8699013426
 C        -1.2803375505       -5.3181219977       -3.9502494935
 C        -2.0037684689       -5.2599833322       -2.4095637184
 C        -3.5436306411       -5.2348565910       -2.4241337064
 C        -1.6786775444       -6.7815800490       -4.4293125089
 C         0.2035583699       -5.1675093048       -3.7019362528
 O        -3.0220490322       -4.4946623095       -5.2978333363
 O        -1.3127354246       -5.3462041351       -1.4485703390
 C        -4.0593662155       -5.7345625381       -1.0717316342
 C        -4.5821907441       -4.6560644540       -0.1287146113
 C        -5.4509251872       -5.0703981628        1.2431579797
 C        -4.3934972534       -5.9552339265        1.9382536127
 C        -4.6382310505       -6.5869538257        3.2853141627
 O        -4.1975029752       -3.5211962569       -0.1682748099
 O        -3.2198846203       -5.9898050865        1.6124608028
 C        -5.6512537207       -3.8027774206        2.2066334475
 C        -6.7627606886       -5.7423630141        0.9106060312
 H         3.2206273323       -2.3278417581        0.0309173624
 H         1.7010353949       -3.3413087551        0.0620344178
 H         2.0523410975       -2.5720209643       -1.4195647113
 H        -2.5809674550       -1.4613371636        0.7852814070
 H        -2.1283267466       -2.1678335867        2.2948396224
 H        -0.1363663172       -0.1562311083       -1.8702204415
 H        -0.1412127316        0.8745001260       -0.4348487481
 H        -1.5634682000       -0.1262376277       -1.0956708310
 H        -0.3958964610       -3.3111572008        0.5862223286
 H        -1.6347883573       -2.7966923224       -0.5211018885
 H        -0.0889157551       -3.0503537308       -1.0864862868
 H        -2.8587907895        0.8072090484        2.3909557020
 H        -4.0103204669       -0.3983142084        2.7274474192
 H        -1.9476316872        2.5315435247        7.3867805467
 H        -1.1415063010        1.0890109019        6.7974375340
 H        -4.8625688406        1.6511164067        4.0505149732
 H        -5.3161360114        1.1864425405        5.5970431358
 H        -5.3520886438        0.0108848441        4.3012115565
 H        -3.9971663959        0.2377448759        7.2199910590
 H        -3.7671982881       -1.3265224955        6.4624113258
 H        -2.4295360744       -0.4472686367        6.9176723139
 H         0.5976039140        2.9554979172        6.8400980541
 H        -0.3401110699        3.7959417246        5.4961931044
 H         2.6511193489        4.3871375042        5.4698003730
 H         4.0885263498        3.8399572393        6.0769774955
 H         2.4080814858        2.8281706352        7.4552848209
 H         3.3656709512        1.3393253305        7.2983407111
 H         1.9251757331        1.1434560476        7.4935016772
 H         1.4195495180       -0.3647676025        5.5857150023
 H         2.4523320776       -0.2620239945        4.0404951618
 H         3.2011268852       -0.3248538370        5.6289405126
 H         4.2402495020        5.7448571900        4.1313794975
 H         4.8416131204        4.3114958299        3.3548265549
 H         0.3610170970        6.1845628885       -0.0785598708
 H         1.8160926752        6.3572051678       -0.9282424517
 H         2.2089540929        7.2699275972        1.9385947750
 H         2.8984531349        7.2041089810        0.3308818676
 H         3.9846113521        7.0745098446        1.7628096768
 H         4.4318025778        5.0479093905       -0.0944035444
 H         4.8465080892        4.8572828458        1.5984296600
 H         3.8776571271        3.5375864746        0.7423449048
 H         0.1058253043        5.7514485830       -2.3907676719
 H        -0.4113324690        4.3548658560       -1.5542678810
 H        -0.5975412029        4.3577154694       -6.6104687839
 H         1.1989962840        4.3901018829       -6.4871761014
 H         2.6483366753        2.3980636886       -5.2659875423
 H         3.5184131990        2.6725005779       -3.7258363452
 H         3.3070704911        3.9979587672       -4.7872181658
 H         1.6483911315        1.2006187522       -3.0047190405
 H         0.3890583217        2.2554404942       -2.2535190485
 H         0.1907498543        1.4775537831       -3.8656853236
 H         0.6376107252        2.6211350025       -7.8768881681
 H         1.1340029532        1.7881151598       -6.3890658634
 H        -2.6198657624       -1.6423295562       -6.3193837322
 H        -1.7353870116       -2.6839546664       -7.2757421280
 H        -2.3338760480        0.9592891716       -8.9844003385
 H        -3.1511715770        0.2208548856       -7.6605502424
 H        -2.4157674447       -0.6946981736       -8.9774418451
 H         1.2253253050        0.3761931885       -8.2912138558
 H         0.1994492319       -1.0731461390       -8.9016465561
 H        -0.0394020314        0.4799735679       -9.5988191022
 H        -1.3395735117       -2.1762302887       -4.3406524986
 H        -0.0747075567       -2.9361903328       -5.1455366170
 H        -3.7089636487       -4.2011536610       -2.6868562564
 H        -4.0337631835       -5.7453688410       -3.2326497303
 H        -2.2344801441       -6.7770993722       -5.3446645415
 H        -2.2925486878       -7.4002050431       -3.7343128742
 H        -0.7625751998       -7.2854708200       -4.6252226601
 H         0.5982095078       -6.0096400630       -3.1618597888
 H         0.7249682568       -5.1329751525       -4.6949847288
 H         0.4918050112       -4.1777747665       -3.3159393223
 H        -4.7289532922       -6.4848631312       -1.3062178054
 H        -3.3553920837       -6.1794017782       -0.4771101474
 H        -3.7190707967       -6.5901346106        3.7807337957
 H        -5.3569094033       -6.0667698160        3.9124272433
 H        -5.0629909450       -7.6091583642        3.1570322512
 H        -4.7668175237       -3.1937808531        2.2676228633
 H        -5.8889549316       -4.2769616057        3.1422016698
 H        -6.3880991142       -3.1419548422        1.8591744362
 H        -7.0757321195       -6.2654543912        1.8201806508
 H        -7.5376267896       -4.9854310902        0.6888309851
 H        -6.5969533478       -6.5430687915        0.1879165824
 Na        1.6030413444        1.8178842798        1.8532870064
