155

 C         2.3634416572       -1.8918408038        0.8044974405
 C         1.3090476511       -0.8660232382        0.5265011256
 C        -0.2024638530       -1.1743762757        0.1198919215
 C        -1.1204093158       -0.5923621417        1.3409332329
 C        -2.4445390687       -1.3218306562        1.7461850174
 C        -0.6226538776       -0.2947309287       -1.1531082550
 C        -0.3181049005       -2.6230528416       -0.2183096229
 O         1.6095474809        0.2842369132        0.6112957451
 O        -0.7554181247        0.4227866099        1.9340487569
 C        -3.2573283566       -0.3823772333        2.6608421873
 C        -2.7201671048       -0.4306421630        4.0978013717
 C        -3.5490052906        0.3726981259        5.1461190861
 C        -2.4927030208        1.4407907187        5.7673540765
 C        -1.3598251038        1.0684954823        6.7300563407
 O        -1.6940206141       -1.0523520806        4.4315574600
 O        -2.6237167425        2.5742292084        5.4191802884
 C        -4.7380251397        1.0690853890        4.5677457463
 C        -3.9821516154       -0.6999131504        6.2554944497
 C        -0.3917423132        2.2570449617        6.6513052527
 C         0.4472708944        2.1649503425        5.2804914624
 C         1.9980550815        1.6280762743        5.3930249547
 C         2.9174223921        2.3677762798        4.4227640179
 C         3.4622178131        3.6717359012        4.9846587311
 C         2.5307600433        1.7967545445        6.8676266490
 C         1.8038598824        0.1965887363        4.9303799880
 O        -0.0585901273        2.5685922890        4.2597541784
 O         3.1554303396        1.9554862642        3.2776519992
 C         3.8761648049        4.5989778439        3.8814480819
 C         2.5842229749        4.7723148928        2.9287940627
 C         2.8402746896        5.0649174413        1.3489080226
 C         1.4869107370        4.7494066241        0.5062036431
 C         0.7602865558        5.7534991054       -0.4686765707
 O         1.5193529243        4.7778189111        3.4687427819
 O         1.1079341976        3.5955790342        0.5266863163
 C         3.2591475038        6.5085001179        1.1428709088
 C         3.9668204453        4.0521420950        0.9352269300
 C         0.3581775011        5.0388465308       -1.7122833368
 C         1.5428259326        4.3751096674       -2.4782681114
 C         1.1836231141        3.5000471933       -3.7400561329
 C        -0.1418554859        3.8016541621       -4.5017484755
 C        -0.3587914793        3.6568662040       -6.0233221685
 C         2.3242892119        3.7438656624       -4.7409286186
 C         1.1582132029        2.0855710550       -3.1052711450
 O         2.6527911127        4.2959201228       -1.9354226307
 O        -1.1286724923        4.2126151696       -3.9128971788
 C         0.1053948055        2.3267067569       -6.6499528559
 C        -0.9550924485        1.3748429885       -7.0925888224
 C        -0.5248934854       -0.0936238145       -7.4583625635
 C        -0.2586415462       -0.9079465654       -6.2014979447
 C        -1.0352530737       -2.2090583790       -6.0247379350
 O        -2.1172162756        1.6971709412       -7.1729196029
 O         0.3675291632       -0.4077511743       -5.2647877932
 C        -1.6278697644       -0.6937550783       -8.2789830730
 C         0.7198679407       -0.1777145917       -8.3545309967
 C        -0.5738770267       -3.1277525719       -4.8818342346
 C        -1.3104855286       -4.4217916437       -5.1207781142
 C        -0.9226769400       -5.6588712162       -4.1936583234
 C        -1.6926915182       -5.3868794414       -2.7848573772
 C        -3.2128748377       -5.0879658547       -2.6673314646
 C        -1.4137439198       -7.0458969139       -4.8138794289
 C         0.6143902863       -5.7062118776       -3.8922403719
 O        -2.2894977290       -4.4878068569       -5.7978780855
 O        -1.0653975852       -5.1864014025       -1.7463999374
 C        -3.7708610974       -5.5062660262       -1.2802477830
 C        -4.4012494289       -4.3689464526       -0.4977625287
 C        -5.0696929085       -4.8112997490        0.9459777431
 C        -4.0622019555       -4.9691797981        2.1126043911
 C        -4.3012813145       -6.1328865958        3.0398643739
 O        -4.3252199584       -3.2379827984       -0.7842098723
 O        -3.1053901228       -4.1729617277        2.2190585687
 C        -5.8218223077       -3.5336567551        1.3974875647
 C        -6.0584569668       -5.9303424401        0.4711880204
 H         3.1000001143       -1.8540564921        0.0074563733
 H         2.9021722703       -1.6603974543        1.7182975647
 H         1.9758444423       -2.9286084773        0.9705746655
 H        -2.9899258624       -1.5351264347        0.8828881673
 H        -2.1672122519       -2.2606940631        2.2296600354
 H         0.1721689558       -0.5337976962       -1.8200096075
 H        -0.6829168087        0.7676399155       -1.0489706818
 H        -1.6172172247       -0.6418454945       -1.5527263097
 H        -0.2924731685       -3.2624242436        0.6217895997
 H        -1.2123902984       -2.8513970263       -0.7314679217
 H         0.5481005464       -2.9999212739       -0.8253806923
 H        -3.3563980226        0.5721809448        2.2854218791
 H        -4.2727391791       -0.7858904504        2.6956884017
 H        -1.7658139481        0.8913991113        7.7166523362
 H        -0.9019701115        0.1416032653        6.4664889112
 H        -4.6255505954        1.8448156824        3.8033014615
 H        -5.2162714701        1.4638044583        5.4496120850
 H        -5.4518955255        0.4278912757        4.1785395914
 H        -4.5633752077       -0.3399440453        7.0665612266
 H        -4.3223048981       -1.6052313096        5.8410319127
 H        -3.0472499894       -1.0966518454        6.7485498004
 H         0.2492814009        2.3812391567        7.5125543593
 H        -0.9599914074        3.2235971445        6.4560073766
 H         2.6894382154        4.2746678942        5.5724384467
 H         4.1662100488        3.5527709596        5.7386458885
 H         2.3662113103        2.6483342935        7.6137118162
 H         3.5865830356        1.5275643817        6.7886551447
 H         2.1673840245        1.0377494433        7.6202428628
 H         0.9650590930       -0.3909725799        5.4277437188
 H         1.5746452563        0.1937938090        3.8978054733
 H         2.6753522258       -0.4578728635        5.0853905830
 H         4.2715704350        5.5437706734        4.2492741594
 H         4.6789508531        4.2016744120        3.3232775046
 H        -0.0941487631        6.0302243902        0.1365214830
 H         1.3270975002        6.6898078213       -0.6236392114
 H         2.5694956968        7.0574332577        1.8210099572
 H         3.1328380346        6.7353125584        0.0864309480
 H         4.2356810907        6.6787686126        1.4940661471
 H         4.2052955660        4.4411356198       -0.1109715612
 H         4.8886596529        4.0751378943        1.5247787862
 H         3.5305889073        3.0584114019        0.7933910341
 H        -0.2730109874        5.6646956843       -2.3844244890
 H        -0.3613127651        4.2830168818       -1.3268232548
 H        -1.3995456313        3.9617103683       -6.1677275896
 H         0.3740127063        4.4457646625       -6.4396578335
 H         2.4085410803        2.9762930508       -5.5049505639
 H         3.2610598440        3.5943196302       -4.1954394441
 H         2.3194724553        4.7182140618       -5.2782988573
 H         0.1640396970        1.9032266894       -2.7196437327
 H         1.5113246806        1.3871677137       -3.8730808893
 H         1.9133952691        1.9241439737       -2.4060953659
 H         0.4821795339        2.6575633615       -7.6181717671
 H         0.7169776352        1.6795338871       -6.0385160671
 H        -2.0817053688       -1.9512893194       -5.8404112111
 H        -1.1239402040       -2.6886207645       -6.9904313283
 H        -1.9745790570        0.0471413372       -8.9855782626
 H        -2.4807842408       -1.1003055470       -7.7312547953
 H        -1.3742463226       -1.5835942969       -8.8345388309
 H         1.5017416372        0.4669114464       -7.9761668999
 H         1.1348669105       -1.2424072465       -8.3558788041
 H         0.4667292696        0.1518346109       -9.4266250389
 H        -0.7256031418       -2.7899336615       -3.7887227602
 H         0.4637404230       -3.2679138192       -5.0330039360
 H        -3.3720501414       -4.0128118939       -2.7244170083
 H        -3.6791492852       -5.5650095287       -3.4804390189
 H        -2.4117862402       -7.2458891916       -4.5145059786
 H        -0.7952822403       -7.8666309431       -4.5152425343
 H        -1.4981234086       -7.0568939260       -5.9102566149
 H         0.9803649686       -6.5288921264       -3.2515328041
 H         1.1405676398       -5.7537211672       -4.8461796449
 H         0.8577550720       -4.8131832671       -3.3222061542
 H        -4.5232665165       -6.3319387925       -1.4184871129
 H        -2.7942434706       -5.7494953680       -0.7335160991
 H        -3.8884367578       -5.9163558468        4.0141639077
 H        -5.3513248632       -6.2717394101        3.1284909301
 H        -3.9582131622       -7.0979690024        2.6338402438
 H        -5.1254143314       -2.7393602940        1.2187925043
 H        -6.0773197451       -3.5543869662        2.4430194503
 H        -6.7354175863       -3.4226532036        0.8342092425
 H        -6.6356990547       -6.3568882458        1.2674699919
 H        -6.6618774021       -5.5461573929       -0.3070679671
 H        -5.4070923215       -6.7613018455        0.0663397706
 Na        0.9340825052        2.0449849703        2.1937183639
