155

 C         2.2753864298       -1.7401100307        1.2616411257
 C         1.3442009849       -0.5962073089        0.8979399112
 C        -0.1428888658       -0.9221447000        0.5621113234
 C        -1.2742637917       -0.2604098632        1.5162504904
 C        -2.4429587098       -1.2420518311        1.7082643160
 C        -0.3823758333       -0.3339909660       -0.8479016705
 C        -0.2852249685       -2.4788169079        0.4172849027
 O         1.6887701842        0.5480923980        0.9301512991
 O        -1.2669115899        0.9136113346        1.9946081386
 C        -3.6373449667       -0.6613913275        2.6015666669
 C        -3.0730567816       -0.4945857488        4.0559343370
 C        -3.8768626069        0.1839827041        5.1042684090
 C        -2.8045321031        1.3785166431        5.8519313918
 C        -1.5078871637        0.8117937768        6.6398059159
 O        -1.9695604417       -1.0694651090        4.3880326463
 O        -3.1611349061        2.5536592756        5.8851843058
 C        -5.0761810211        0.8874089058        4.4445405667
 C        -4.2129313847       -0.7027195883        6.3696015144
 C        -0.3634598737        1.8265179688        6.8357329860
 C         0.5601859706        1.8724035568        5.6110732872
 C         1.9810118549        1.3551440409        5.5928503750
 C         2.7297270549        2.2994197066        4.5328076780
 C         3.2906760505        3.7170605402        5.0247988156
 C         2.7515433798        1.3243686361        6.8414207434
 C         2.0052848798       -0.0890077071        4.9376725943
 O         0.0885039300        2.3448455000        4.5740401443
 O         2.7468510237        2.0661170034        3.3162203995
 C         3.7193468697        4.6033507051        3.7349198377
 C         2.4789316702        4.6893650746        2.7415354942
 C         2.8230277029        4.8356464922        1.1803036990
 C         1.3176262539        4.8294871847        0.3780816355
 C         0.9384929017        5.9614875912       -0.6188686733
 O         1.3475719967        4.7155093848        3.1614076431
 O         0.5485619868        3.9091533262        0.6489170980
 C         3.5932522943        6.2352523940        0.8603786149
 C         3.6929614713        3.6362135257        0.6852375755
 C         0.2484854675        5.2191949567       -1.7760471519
 C         1.4343143007        4.7099101111       -2.6789189583
 C         1.1826112563        3.8101252000       -3.8502073947
 C        -0.2875094108        3.6821385470       -4.3210948011
 C        -0.5992224933        3.5728703578       -5.8442195409
 C         2.1495560273        4.1956001757       -4.9775622429
 C         1.7095720189        2.4451057599       -3.2996227775
 O         2.5456562853        5.1806038254       -2.4567402351
 O        -1.1688524875        3.9137274836       -3.4781620985
 C         0.0736257115        2.3034712471       -6.4045080061
 C        -0.9092533824        1.2671509332       -7.1706557080
 C        -0.3151502716       -0.1351226391       -7.5994294450
 C        -0.2341698673       -0.9513371373       -6.1297916551
 C        -1.1169151911       -2.1553922183       -5.9157953775
 O        -2.0453418318        1.5668158558       -7.4153577727
 O         0.5869067116       -0.6136341021       -5.2587428656
 C        -1.2670619681       -0.7271503111       -8.6358252243
 C         1.1081650562        0.0841925568       -8.2154193674
 C        -0.1682657859       -3.2575714524       -5.2457491251
 C        -0.9940050016       -4.6256058689       -5.2553387158
 C        -0.6668753745       -5.7682469484       -4.1556586816
 C        -1.2354369016       -5.4358617589       -2.7106226136
 C        -2.7461555992       -5.2089663904       -2.5644928789
 C        -1.4483907264       -7.0766451787       -4.5066083503
 C         0.8766889214       -6.0412081782       -4.1376613409
 O        -1.8524906323       -4.9054766392       -6.0119415048
 O        -0.5848635425       -5.6098659591       -1.7372041820
 C        -3.4364348438       -5.5507087485       -1.2134923379
 C        -4.1417671870       -4.4020153902       -0.5971017946
 C        -5.2000435889       -4.6542658927        0.6534224243
 C        -4.1809994142       -4.6005634289        1.8806114333
 C        -3.8144232515       -5.8296736080        2.7118037408
 O        -3.9504645206       -3.2636069786       -0.7947095938
 O        -3.4899656069       -3.5925102776        1.9396831823
 C        -6.1426967170       -3.4398977368        0.6626870925
 C        -5.9268554776       -5.9579104335        0.5032448129
 H         1.7883585699       -2.7339601782        1.3101550870
 H         3.1921569154       -1.7418176783        0.6408578827
 H         2.5012306253       -1.6417370099        2.4328656178
 H        -2.7726705321       -1.4557181826        0.7191297529
 H        -2.0317501474       -2.1404435282        2.2194349247
 H         0.2665394333       -0.9037846667       -1.4352285429
 H        -0.1217387369        0.7360605048       -0.8403989341
 H        -1.4416225728       -0.2424611042       -1.1177202629
 H        -0.3085056908       -2.9883054305        1.3163677714
 H        -1.2881366662       -2.6706543237       -0.0259237164
 H         0.3661853683       -2.9759531245       -0.2689935127
 H        -4.0770507648        0.1597853395        2.2050019808
 H        -4.3678813770       -1.4710080191        2.6625622370
 H        -1.8179721785        0.4234901967        7.5915620403
 H        -1.2240382408       -0.0439823310        6.0818926319
 H        -4.7753595482        1.7860667110        3.8718419469
 H        -5.7084728494        1.3575450943        5.1638348287
 H        -5.7087695630        0.2871331710        3.8553573284
 H        -4.4412330373       -0.2400132708        7.3774847615
 H        -5.0436884889       -1.3804809197        6.2050166094
 H        -3.2910947568       -1.3342620270        6.5113248322
 H         0.1616243161        1.5174350782        7.7567632375
 H        -0.8410578770        2.8370291942        7.1506080055
 H         2.5996935654        4.2589453228        5.7626340479
 H         4.2182739761        3.6396220074        5.5301036758
 H         3.2048278424        2.3300211335        7.2185120451
 H         3.6638365276        0.8624584803        6.8058986876
 H         2.1728078146        0.8906775932        7.6683305280
 H         1.4090941656       -0.7851578585        5.5993152721
 H         1.3833944333       -0.1089668895        4.0116517651
 H         2.9899533845       -0.5434262496        4.6498008079
 H         4.0638035436        5.6255011623        3.8956911654
 H         4.5199873330        4.0260734261        3.3162622378
 H         0.2167546096        6.5625099749       -0.1794884585
 H         1.7313747458        6.6205335164       -0.8705476169
 H         3.1519385906        6.9748659252        1.5427815154
 H         3.6186772374        6.4826371877       -0.1879536227
 H         4.6155302843        6.0767694239        1.1382129465
 H         3.5098965240        3.5291016867       -0.3961617953
 H         4.7238326659        3.7564469350        0.8926479044
 H         3.4686003952        2.7410511341        1.2757959183
 H        -0.4909989550        5.9110133911       -2.2412903276
 H        -0.2953588553        4.3977262370       -1.2911800838
 H        -1.6518849723        3.6600417926       -5.9201885749
 H        -0.2089287272        4.5760697471       -6.2275671536
 H         2.1566220493        3.6841376886       -5.9022597464
 H         3.1333087107        4.0902236708       -4.5373779838
 H         1.9953056379        5.2428921984       -5.2885955609
 H         0.8793895981        1.8095384497       -2.8952036615
 H         2.2850942858        1.8926046208       -4.0862821542
 H         2.4392154223        2.4731576781       -2.5127904774
 H         0.7639109347        2.5551691952       -7.1784537791
 H         0.4884699884        1.7265939836       -5.6351952520
 H        -1.8387644111       -1.9340613420       -5.1591274700
 H        -1.5972656467       -2.4261604311       -6.8117514393
 H        -1.0838468500       -0.2224995088       -9.5321414970
 H        -2.3563364871       -0.5575887234       -8.4949380807
 H        -1.1084196788       -1.7459792921       -8.8841801482
 H         1.8949063645       -0.0338264229       -7.4405730819
 H         1.3095828599       -0.7262836085       -8.8529046940
 H         1.1592021090        0.9790849087       -8.7809601042
 H         0.3155513926       -3.0258149491       -4.2538795684
 H         0.5951369035       -3.4885604152       -5.8794108924
 H        -2.8253739498       -4.1260056321       -2.6484621618
 H        -3.3015201557       -5.6414696475       -3.3224785626
 H        -2.3206046440       -6.9496107477       -5.1289492877
 H        -1.7495742623       -7.5055762866       -3.5145957037
 H        -0.8371833698       -7.8620448317       -5.0154985851
 H         1.1104688303       -6.8070141368       -3.3727088111
 H         1.0694996199       -6.4787525787       -5.1499078492
 H         1.4636619571       -5.1349464768       -3.8964134621
 H        -4.0427033463       -6.3875220544       -1.4865562615
 H        -2.6979291817       -5.6880590261       -0.4682285953
 H        -3.1401328349       -5.6108241407        3.5130159224
 H        -4.7665719554       -6.0995140439        3.1566041566
 H        -3.4352032452       -6.7049360908        2.0967782027
 H        -5.4994013101       -2.5583528535        0.8861078496
 H        -7.0426314912       -3.4667146622        1.3120559211
 H        -6.5578140592       -3.4755242586       -0.3512319994
 H        -6.2817888033       -6.3829925478        1.4430281415
 H        -6.7769878864       -5.7549214615       -0.1356202850
 H        -5.3202616568       -6.8398204017        0.0613615748
 Na        0.6972016863        2.1452151768        2.4389243221
