155

 C         1.6655223939       -1.7470941117        1.8065783702
 C         1.0580601384       -0.3741134798        1.3444297198
 C        -0.4242141664       -0.5909898027        0.6451505574
 C        -1.5872784269        0.1048964530        1.4638944862
 C        -2.8530337283       -0.6087849109        1.7074455597
 C        -0.2509847043        0.2193607849       -0.7389365359
 C        -0.7081293067       -2.0720407939        0.3475676177
 O         1.6490362085        0.6520825547        1.4010540952
 O        -1.5243990762        1.2960466785        1.7320317557
 C        -3.7227508740        0.0277745830        2.8341787529
 C        -3.1592230684       -0.3445039424        4.1779398058
 C        -3.9704556947        0.2974201819        5.3734543877
 C        -2.9725097973        1.1332547691        6.2101599468
 C        -1.7244600521        0.3308869483        6.9410005931
 O        -2.3837051580       -1.2685579785        4.3735036382
 O        -3.0655094047        2.2890589401        6.3270621642
 C        -5.1906006444        1.1158844996        4.8965511340
 C        -4.4381630860       -0.8514331455        6.3132265317
 C        -0.4492032866        1.2770915698        7.1823660862
 C         0.3820403637        1.5582517666        5.9038034926
 C         2.0035577822        1.4393023678        6.0925061394
 C         2.4768207763        2.1709843094        4.8001337532
 C         2.7721560288        3.6595529267        5.0337627197
 C         2.5106053485        1.9909143210        7.4121555445
 C         2.2739843218       -0.0826877032        5.9782876019
 O        -0.1611675580        1.8083369083        4.8785951741
 O         2.5546361534        1.7258088713        3.6494796824
 C         3.4371958874        4.2430552892        3.6862830580
 C         2.2191119367        4.7027051711        2.7358660156
 C         2.5188338910        4.9218952636        1.1448828924
 C         1.2142317441        5.0943512915        0.3337804763
 C         0.8776582269        6.1981512738       -0.5923884816
 O         1.1098002309        4.9184023031        3.1446966209
 O         0.3402960349        4.2546648782        0.5085555700
 C         3.4481981721        6.1021517945        0.9720235628
 C         3.2413003460        3.6628647954        0.5278648660
 C         0.3048080767        5.7421828618       -1.9380079565
 C         1.3546518281        5.6533244036       -3.1341839334
 C         1.3717269305        4.2998814104       -4.0669151700
 C         0.0416996674        3.5466076909       -4.0921254137
 C        -0.5871287683        2.7983651141       -5.3310292902
 C         1.6803264077        4.8096246873       -5.5689056630
 C         2.5646597612        3.4646487329       -3.6202607315
 O         1.9088150982        6.6611987334       -3.4614711798
 O        -0.5550520429        3.4165683408       -3.0774363276
 C         0.2551756236        1.7704429028       -5.9431677687
 C        -0.5704886525        0.9028709747       -6.9182748233
 C         0.0974009263       -0.3241377133       -7.6888744400
 C         0.3147644310       -1.3351009846       -6.4933720004
 C        -0.3120497193       -2.7660027159       -6.6523352852
 O        -1.7689136848        1.1025385191       -6.9530722048
 O         0.6388772004       -1.0446249511       -5.3611038494
 C        -0.7898585217       -0.8813519338       -8.8442350540
 C         1.4391455744        0.0709091684       -8.2282248618
 C        -0.0080602359       -3.5466465576       -5.4178419489
 C        -0.7671001543       -4.8802108822       -5.3567153315
 C        -0.2995965583       -6.0457247744       -4.2354463402
 C        -0.6005718712       -5.5499749326       -2.7582840897
 C        -2.1582146300       -5.3066981834       -2.4858217608
 C        -0.9302537921       -7.4461899330       -4.5065717521
 C         1.2602770500       -6.0870490917       -4.3279986583
 O        -1.9148574689       -5.0006950106       -5.8497644792
 O         0.1687132531       -5.3879652205       -1.8362161005
 C        -2.5556523958       -5.3563424049       -0.9976433784
 C        -3.6942747589       -4.3931287216       -0.6929759890
 C        -5.1140778193       -4.8885650073       -0.1831414872
 C        -4.7449991223       -5.0914172301        1.5013900178
 C        -3.9154125828       -6.2804058604        1.8446221633
 O        -3.5181779960       -3.1617025988       -0.8262720258
 O        -5.0990646895       -4.2576913055        2.2905679354
 C        -6.0621628566       -3.7829898346       -0.5046625461
 C        -5.5455750710       -6.1778356204       -0.8766029783
 H         1.6674554633       -2.4234238262        0.9827535444
 H         2.7076184018       -1.4891706636        2.1954628930
 H         1.1799877861       -2.1995689881        2.5958046350
 H        -3.4702821478       -0.6526891798        0.7473279221
 H        -2.6029082028       -1.6751831719        1.9984633992
 H         0.5948119690       -0.2126559366       -1.2784762820
 H         0.1485215576        1.2413931010       -0.5217657216
 H        -1.0499213546        0.0307111241       -1.3950093836
 H        -0.9413336785       -2.7470532058        1.2193608112
 H        -1.6620241518       -1.9999038296       -0.2870443179
 H         0.0570117321       -2.5016839634       -0.2462398573
 H        -3.8432780969        1.1205510423        2.7421957680
 H        -4.7526072324       -0.4423690014        2.7010715126
 H        -1.9470768851       -0.0420071308        7.9937154844
 H        -1.4770574361       -0.4796712574        6.2144540415
 H        -4.9359440248        1.7380801394        4.0620796255
 H        -5.7332295360        1.6083560470        5.7023107155
 H        -5.9252595543        0.3907887487        4.4616110189
 H        -4.7944012773       -0.4321357063        7.3227620521
 H        -5.1933788939       -1.4055234365        5.7427402779
 H        -3.6825435749       -1.5595240471        6.4458986927
 H         0.0551441208        0.7795283301        8.0236658755
 H        -0.6880468002        2.2527396809        7.6195611123
 H         1.8968608680        4.3138882105        5.2482350826
 H         3.6394436338        3.7430849022        5.6941218669
 H         2.1506687083        2.9889904804        7.4969607714
 H         3.6659388274        1.9838741687        7.3969126062
 H         2.2218671316        1.4436867019        8.3088733105
 H         1.4190242135       -0.6006872351        6.2085655500
 H         2.6355291391       -0.4194726854        4.9929267482
 H         2.9376327798       -0.3585803599        6.7488460395
 H         3.8760106541        5.2170297495        3.9699172638
 H         4.2272391511        3.5827170048        3.2532243102
 H         0.0791461245        6.8386515896       -0.2124872485
 H         1.7391783194        6.8047205955       -0.8628199577
 H         2.9827988855        7.0680306812        1.0638745532
 H         3.9480428555        6.1244758512        0.0127314543
 H         4.2105887300        6.0376458240        1.8151725293
 H         3.1868181771        3.4844832554       -0.5393222690
 H         4.2908966439        3.8434463819        0.7363915597
 H         2.9163651625        2.7403407111        1.0793256049
 H        -0.4219917872        6.4717135337       -2.3058024891
 H        -0.1298644609        4.7669976836       -1.8858537488
 H        -1.4682059408        2.3881451021       -4.9254408702
 H        -0.8858626222        3.5255478777       -6.1001743098
 H         2.1723060418        4.0586270733       -6.1960205533
 H         2.3090449052        5.7177146873       -5.5244396233
 H         0.7420830637        5.1848394573       -6.0223015631
 H         2.4197223569        2.5247338850       -3.0696755577
 H         3.0874745761        3.1267819126       -4.5058547476
 H         3.2541656543        4.0893187832       -3.0317320514
 H         1.0929879292        2.2325105474       -6.5247000643
 H         0.8842267673        1.1643724674       -5.2817947121
 H        -1.3889945635       -2.5463935961       -6.6921073323
 H         0.1134266075       -3.3380122817       -7.4992692963
 H        -0.9929678172       -0.0602773630       -9.5768788186
 H        -1.7871976575       -1.2271019708       -8.4115301157
 H        -0.3335590582       -1.7341067725       -9.4302961783
 H         2.1125807077        0.3109878846       -7.3398067203
 H         1.8103060605       -0.7683562839       -8.8295709784
 H         1.4050362230        0.9631509555       -8.8656896466
 H        -0.3786775254       -2.9609323781       -4.4985894115
 H         0.9885794024       -3.8444506129       -5.3206604742
 H        -2.3424645598       -4.1926970319       -2.8577951158
 H        -2.7964902650       -5.9206429046       -3.1390001307
 H        -1.5900403493       -7.6781919244       -3.7103089506
 H        -0.1061990960       -8.1797093727       -4.4056035413
 H        -1.3712448952       -7.6005437219       -5.4424872011
 H         1.5883242497       -6.9611046284       -3.8531195497
 H         1.5288972213       -6.1337942247       -5.3781284236
 H         1.7014456118       -5.1861739816       -3.9891256325
 H        -2.8050086908       -6.3909445815       -0.6941654633
 H        -1.7050782423       -5.1260504319       -0.4275123781
 H        -4.0000235478       -6.5170154474        2.8856363246
 H        -4.3232185681       -7.1428695373        1.2855561888
 H        -2.8341081560       -6.0922006862        1.6663995007
 H        -5.8597579083       -2.8778657541        0.0158480479
 H        -7.0983631408       -4.0354453348       -0.4028108196
 H        -5.8425508311       -3.4818231800       -1.4807756145
 H        -6.3060432066       -6.6774061323       -0.3134341425
 H        -6.0176701016       -5.9490674477       -1.8396799798
 H        -4.8108556479       -6.9047178347       -1.1162115646
 Na        0.4362992874        2.4038887248        2.4439333150
