155

 C         2.7177577160       -1.8161079764        3.4455791921
 C         1.4654785296       -0.9131205041        3.0898374220
 C         0.4836133773       -1.4524331439        2.0290430651
 C        -0.9360506634       -0.8969356109        2.2205904694
 C        -1.9091861645       -1.8438422759        2.8653219924
 C         1.0526163950       -0.9391971145        0.5986005519
 C         0.5736323090       -3.0302004961        1.8796873470
 O         1.4771495620        0.2185981389        3.4967629776
 O        -1.3532230509        0.1672819135        1.6783454460
 C        -3.2223997609       -1.0371334448        3.2478940333
 C        -3.3217672470       -0.8720039835        4.7911805724
 C        -4.3184179134        0.1886195420        5.3608644651
 C        -3.7732679273        1.5359673167        6.0578943210
 C        -2.4899225754        1.3316088281        6.8440165336
 O        -2.7194328527       -1.6639949159        5.4758764461
 O        -4.5103240413        2.4707136421        6.0602680348
 C        -5.2788951177        0.5712091426        4.1323945939
 C        -5.2500500622       -0.4590731503        6.4061965786
 C        -1.6825774968        2.5774346438        6.9511149403
 C        -0.6329559407        2.5771712409        5.8311966894
 C         0.6981693358        3.4303456666        6.0064549374
 C         0.8880871800        4.2603705495        4.6675866362
 C         0.3186814146        5.6516433946        4.6145019850
 C         0.5649096859        4.3170025292        7.2852587546
 C         1.7829571105        2.2937399543        6.1418176662
 O        -0.7814607173        1.7805998583        4.9077434263
 O         1.3495763229        3.7312199024        3.6494878698
 C        -0.1976423138        5.9931819131        3.2188678504
 C        -1.3674344857        5.1853079208        2.8235518013
 C        -1.9660155743        5.2916620028        1.4366763010
 C        -1.3580988144        4.1967776746        0.3954818699
 C        -1.1460134633        4.4184197795       -1.1276078340
 O        -1.6840149505        4.2502797988        3.6137778516
 O        -0.8957762057        3.2024400930        0.8732455502
 C        -3.4320877872        4.9339884082        1.6176464043
 C        -1.9400688617        6.7979377424        0.9117593951
 C         0.2554643872        4.9119688854       -1.5022295382
 C         0.3950457830        5.0674279455       -3.0236163952
 C         1.7820353619        5.2512251946       -3.6777640625
 C         2.6383388612        3.9679877559       -3.7051090982
 C         3.2648167462        3.5997457377       -5.0521459511
 C         1.4596834605        5.9701565252       -5.0758602088
 C         2.4613943562        6.3114951421       -2.6610028908
 O        -0.5911616320        5.1033796656       -3.7365388739
 O         2.8097860087        3.3261583921       -2.7159353935
 C         4.1135198695        2.2891210605       -4.9754732917
 C         3.5968333570        1.2077567604       -5.9765279686
 C         3.4423945945       -0.2368402844       -5.3578029825
 C         2.2272316562       -0.2697343916       -4.3807716765
 C         1.2259207619       -1.3394647940       -4.6852463816
 O         3.3579581415        1.5109238185       -7.0695335927
 O         2.2197797982        0.4888567359       -3.4362680871
 C         3.4438144837       -1.2337745095       -6.5666282067
 C         4.6919118701       -0.5099466033       -4.3741228869
 C         0.8830642290       -2.1930326198       -3.4783068359
 C         1.0832219600       -3.7509526406       -3.7923863399
 C         0.4617602686       -4.7931786497       -2.8633499903
 C        -1.1375355966       -4.4761631979       -2.9715730503
 C        -1.9440979182       -4.7705907689       -4.2188591844
 C         0.7087754356       -6.2856667517       -3.2248508849
 C         0.7857490097       -4.5868791349       -1.4112505115
 O         1.8335166202       -3.9666890295       -4.7775055330
 O        -1.6021378489       -3.8719433950       -2.0717528791
 C        -2.4593284324       -6.2108959359       -4.2662068449
 C        -3.8360600913       -6.4078254749       -4.9479410532
 C        -4.5290174001       -7.7935539557       -4.7951116800
 C        -4.7466105756       -8.2032191291       -3.2494074720
 C        -6.1724389911       -8.6753119962       -2.7593962358
 O        -4.3740484895       -5.4452773674       -5.4046127135
 O        -3.7707257930       -8.2830867893       -2.4662709645
 C        -5.8471945588       -7.7291878797       -5.6755348011
 C        -3.5178957359       -8.7733169955       -5.4653119711
 H         2.6106133713       -2.8857407241        3.2128295829
 H         3.4676315695       -1.5884589326        2.6476163830
 H         3.1865594021       -1.4891830313        4.4094619557
 H        -2.1554432968       -2.7127842452        2.3904273477
 H        -1.3484947526       -2.1087731592        3.7845714867
 H         2.0894624422       -1.2615904809        0.6902066155
 H         1.2462270637        0.1419771699        0.4821838279
 H         0.5030323061       -1.3162859053       -0.2125953967
 H         0.5027402284       -3.5703561887        2.8060524172
 H        -0.2285059068       -3.4318262533        1.2415156037
 H         1.5563134881       -3.2161839882        1.3903717426
 H        -3.2583405375       -0.0707969876        2.6347712023
 H        -4.0589554325       -1.7502789219        2.9415345286
 H        -2.6981791676        0.8609657180        7.7596172367
 H        -1.9246285303        0.5426743349        6.2820726019
 H        -4.6692326088        1.0247708230        3.3865922765
 H        -5.9300201971        1.4079813930        4.3800476221
 H        -5.8947808738       -0.3407435518        3.8225235458
 H        -6.1820370346        0.0697298695        6.4183189194
 H        -5.4370625374       -1.5359542943        6.1697454128
 H        -4.8691142754       -0.5328713350        7.4438176046
 H        -1.1977128870        2.7719215174        7.9182938387
 H        -2.3306686869        3.4592811523        6.7376482787
 H        -0.5836496073        5.5746269559        5.3030558727
 H         0.9619966050        6.3336658765        5.1478966477
 H        -0.5063908253        4.7824550106        7.2668561011
 H         1.0791769520        5.2648405853        7.3133367696
 H         0.7595799663        3.8037871213        8.1948173605
 H         1.3469539152        1.4803162296        6.6920586477
 H         2.2507364396        1.9883806906        5.2138585550
 H         2.6551080370        2.6661713795        6.6826321121
 H        -0.4342984071        7.0029912184        3.1235194377
 H         0.6684873902        5.9406977291        2.5264646404
 H        -1.3616011869        3.4142400818       -1.4557656737
 H        -1.8651591252        5.0615058572       -1.6067479658
 H        -3.6067898826        4.2852285382        2.4804181302
 H        -3.9648048650        4.6121465039        0.6733181844
 H        -4.0431363441        5.8435598585        1.8081225908
 H        -2.6973571349        6.8977611366        0.1122579481
 H        -2.3041478534        7.3195147403        1.7463578295
 H        -0.9935659329        7.1939974312        0.5167451811
 H         1.0147826684        4.2996407968       -1.0267262613
 H         0.3524183138        5.8723896990       -1.0162802068
 H         2.4546293890        3.5586830851       -5.7806121722
 H         3.8482039152        4.4639359776       -5.3161485266
 H         2.3849608457        6.1848801366       -5.6212468187
 H         0.9965365596        6.9567486302       -4.9061887174
 H         0.8386803308        5.2083530461       -5.5429846968
 H         2.4198852067        5.9272748364       -1.5967397280
 H         3.5407889103        6.3494643095       -2.8866933057
 H         1.9970840611        7.3355166068       -2.8348087778
 H         5.1823674234        2.4738660313       -4.9191065593
 H         3.9791795780        1.8537174417       -3.9282842521
 H         0.2183743900       -0.8987333859       -5.0594011384
 H         1.6754933629       -2.0489543247       -5.4236575864
 H         4.2273889525       -1.1130933718       -7.2391140920
 H         2.4757249625       -1.2146684249       -7.0278525597
 H         3.6555381507       -2.2056029629       -6.1997187766
 H         4.5971322265        0.0127773102       -3.3879283603
 H         4.6851802961       -1.6163515985       -4.3250429473
 H         5.5605326555       -0.3736861019       -5.0078394834
 H        -0.1118187064       -2.1121945291       -3.1015806606
 H         1.5725717803       -1.9899447458       -2.6131098813
 H        -2.7461708231       -3.9748437264       -4.2284010442
 H        -1.2525456360       -4.5101039459       -5.1273135237
 H         0.1566721695       -6.9875203991       -2.6493905407
 H         1.7608093780       -6.6150667321       -3.1149543119
 H         0.5152303345       -6.4348108643       -4.2774396934
 H         0.3108954016       -5.2643993931       -0.6642090943
 H         1.8741819587       -4.6145516346       -1.2413300749
 H         0.4302881133       -3.5810440996       -1.0916809950
 H        -1.6044455635       -6.8622151743       -4.7416006433
 H        -2.6493095587       -6.7098072131       -3.2871443251
 H        -6.9405803801       -8.0058216987       -3.2214590598
 H        -6.1673270361       -9.7082737998       -3.0152878462
 H        -6.2095487305       -8.6995328278       -1.6736340721
 H        -6.4769304623       -6.8796258489       -5.6045763126
 H        -6.4485949492       -8.5762732865       -5.4581236077
 H        -5.5384378767       -7.8475316667       -6.7065093242
 H        -4.1282791335       -9.5868435486       -5.7912363448
 H        -2.9545870165       -8.2006972545       -6.1875060989
 H        -2.8162588644       -9.1401844198       -4.6870546306
 Na       -0.0120663448        1.9733744866        2.6214736468
