155

 C         2.5613078853       -1.3189720314        3.2711964845
 C         1.4002188181       -0.5399710011        2.6244188929
 C         0.3172051471       -1.3379667946        1.7471537828
 C        -1.1052120663       -0.9189990305        2.1508177815
 C        -1.8069178127       -1.7245022068        3.3667036287
 C         0.6000809741       -0.8006936338        0.2567297466
 C         0.5725161740       -2.8329112359        1.9383305435
 O         1.3512603208        0.6425772751        2.8029409157
 O        -1.5652437388        0.1772613066        1.9062045557
 C        -3.0882607931       -1.1341909866        3.8257683718
 C        -3.3537547442       -0.8596133550        5.3290502269
 C        -4.5206931386        0.0631415214        5.8001798603
 C        -3.9778723781        1.4554325015        6.1966520783
 C        -2.8116623923        1.4618088940        7.2143107442
 O        -2.5077042480       -1.3605445879        6.0691676362
 O        -4.4561283775        2.5089144844        5.7259623880
 C        -5.4595137674        0.1515722297        4.5904501184
 C        -5.4095971591       -0.4708832299        6.9930739186
 C        -1.9869223372        2.7582343327        7.1816702349
 C        -1.0928720226        2.7273044677        5.9574730341
 C         0.2687873697        3.6266816112        5.9871351439
 C         0.4630880165        4.4074016362        4.6729050086
 C        -0.1947439057        5.7672210235        4.4038385107
 C         0.2459762770        4.5209634725        7.2789775871
 C         1.4639178368        2.6216022826        6.1439122866
 O        -1.3132589475        2.0256534080        5.0443091504
 O         0.9357827818        3.7815624877        3.7350946917
 C        -0.6327712949        5.8607812840        2.9006555385
 C        -1.7578792573        4.8002866848        2.4811230947
 C        -2.4110701341        4.6399816518        1.0876295558
 C        -1.2220086016        4.0052145078        0.1346081633
 C        -1.1853503316        4.3714846774       -1.3639740317
 O        -2.0881277366        3.9471421396        3.2937206682
 O        -0.3739639007        3.3037596551        0.5969769056
 C        -3.5976613580        3.6919197782        1.1662087767
 C        -2.9924850664        6.0272092143        0.5876074618
 C         0.1314675602        5.0437947211       -1.7041262126
 C         0.5137948911        5.0280037201       -3.2851299207
 C         2.0277547291        5.5920672296       -3.5140865224
 C         3.0236300711        4.3556210005       -3.2680762916
 C         3.3192482506        3.4936973157       -4.5246192467
 C         2.0403475405        6.2780084050       -4.9099776518
 C         2.3804101864        6.6790525740       -2.4531761000
 O        -0.2419824687        4.6153780192       -4.1258115498
 O         3.4289165333        4.1821131589       -2.0912733701
 C         4.1407610067        2.2207868125       -4.1556002529
 C         3.9899714139        1.2202148606       -5.2997541140
 C         3.9629459352       -0.3184181630       -4.8705229191
 C         2.6084557470       -0.4657666388       -4.0838749076
 C         1.3239758820       -1.0581981598       -4.8095650832
 O         3.8909821525        1.5851289441       -6.4865356814
 O         2.4368427260       -0.0236854758       -2.9430762327
 C         3.9517787998       -1.1990618746       -6.1099433744
 C         5.1345461253       -0.6285466323       -3.8860186523
 C         0.4678126664       -2.1005580738       -4.0088642952
 C         1.3853811492       -3.3877041381       -3.8810612138
 C         0.7646872906       -4.7771189055       -3.3377407645
 C        -0.8537335099       -4.6846814365       -3.3408877859
 C        -1.6083415110       -5.1688496346       -4.7206143253
 C         1.2581462333       -5.8701966757       -4.3036464026
 C         1.2691835946       -5.0749498794       -1.9654970809
 O         2.5651700730       -3.2775623199       -4.1349658836
 O        -1.5158618569       -4.1580447838       -2.4821266877
 C        -2.4103787694       -6.4208745750       -4.2759887188
 C        -3.8333443402       -6.4813182434       -5.0284004483
 C        -4.4806588688       -7.9542289779       -4.9891659823
 C        -4.6872504718       -8.4949512679       -3.5505810749
 C        -5.1477317726       -7.6434051258       -2.4116712729
 O        -4.3438371177       -5.5514976054       -5.6337890865
 O        -4.4906782251       -9.7408501111       -3.4412443014
 C        -5.9107007494       -7.7984891099       -5.6417149351
 C        -3.6046535550       -8.8451318634       -5.8648188401
 H         2.1935086644       -2.2363701140        3.8125526072
 H         3.2403944443       -1.7020626933        2.5738435309
 H         3.0797194266       -0.6403655779        3.9712324776
 H        -1.9175283328       -2.7355225178        3.0802989661
 H        -0.9554583236       -1.6765946884        4.1444692457
 H         1.5441469784       -1.2077205416       -0.0908185644
 H         0.5030789064        0.2379688974        0.2265193136
 H        -0.0876679933       -1.2806560614       -0.5393704366
 H         0.5431244556       -3.0566138939        3.0135256732
 H        -0.1242148181       -3.4288310624        1.2997586337
 H         1.5228916228       -3.0848830249        1.6834682825
 H        -3.1825156418       -0.2551508574        3.2312838899
 H        -3.8195278182       -1.8334347475        3.4934239497
 H        -3.2193105186        1.3309575860        8.1814786435
 H        -2.2164239932        0.5063750542        7.1252283223
 H        -4.9574916258        0.4600220755        3.6666461589
 H        -6.2812429243        0.7813799066        4.8656297482
 H        -5.8794490803       -0.7998202362        4.2719321468
 H        -6.4124222160       -0.0346382943        7.1627903510
 H        -5.6572757773       -1.5179330949        6.8050121267
 H        -4.9434846465       -0.3750533732        7.9553576166
 H        -1.3760717776        2.8437810198        8.1170657588
 H        -2.6162859926        3.5809789395        7.0579506811
 H        -1.0863642313        5.9362451452        5.0455016329
 H         0.5476309497        6.5030090940        4.6947856200
 H        -0.6435020029        5.1608870456        7.3546221857
 H         1.2109627728        5.0269607465        7.2520974367
 H         0.4296961232        3.9400790500        8.3137253404
 H         1.2430378236        1.6721818572        6.7381418744
 H         1.8409499629        2.2785229297        5.1948697470
 H         2.2225857901        3.1364750823        6.7363696894
 H        -1.0834695357        6.8798033968        2.8233150269
 H         0.2885989658        5.7814858019        2.3731903940
 H        -1.3141777284        3.3906528260       -1.8256225208
 H        -2.0356001160        4.9612322530       -1.6498538817
 H        -3.4693268686        2.8019198429        1.7370798450
 H        -3.8244853619        3.3285826186        0.1982101815
 H        -4.4200204668        4.2908316566        1.5749026716
 H        -3.8587248427        5.8253367304       -0.0881849667
 H        -3.4833991953        6.4047173716        1.4649125477
 H        -2.2735907102        6.7523801782        0.1994537254
 H         1.0508777301        4.6503527577       -1.2172297954
 H        -0.0124168279        6.0763113932       -1.3020906659
 H         2.4476327012        3.3074599031       -5.1608077671
 H         4.0045525733        4.1161135076       -5.1134888778
 H         2.9920384320        6.7715560506       -5.0838626674
 H         1.1672865347        6.8763400510       -5.1761119540
 H         1.9690700722        5.4747847234       -5.6040681993
 H         2.6161851907        6.2259535230       -1.5101558147
 H         3.2532014974        7.2023799397       -2.7940365275
 H         1.5635898076        7.4182591511       -2.3001683736
 H         5.2382137666        2.3525655474       -3.9556341710
 H         3.7733398354        1.7107155916       -3.3150679650
 H         0.6922700978       -0.2555293498       -5.0125030977
 H         1.5847842993       -1.4379379037       -5.7748891440
 H         4.9245316046       -1.1358540640       -6.7209237457
 H         3.2457525970       -0.8099166377       -6.8860767677
 H         3.6121397420       -2.2053665919       -5.8173394884
 H         4.9554551535       -0.4757507143       -2.7871543398
 H         5.3461566460       -1.6501016564       -4.0271727839
 H         5.9463111963       -0.0002239726       -4.1767468658
 H        -0.5116012064       -2.2766862354       -4.4855947294
 H         0.3048474234       -1.6784525618       -3.0295099753
 H        -2.3197106098       -4.4137939043       -4.9040171565
 H        -1.0163376781       -5.3411984760       -5.6800330187
 H         0.8072703006       -6.8553505643       -4.2621581850
 H         2.3363895161       -5.9689477860       -4.0239525585
 H         1.1959955656       -5.6113722399       -5.3310192742
 H         1.0350033620       -6.1249577489       -1.6942829409
 H         2.3615651809       -4.9535171958       -1.9840854865
 H         0.9272346310       -4.3953759508       -1.2065373609
 H        -1.9186901121       -7.3737410504       -4.2711845037
 H        -2.7428666214       -6.2013696687       -3.3003771408
 H        -4.7023586375       -6.6649348360       -2.4359393628
 H        -6.2021676860       -7.5151547150       -2.6302871402
 H        -4.8444349452       -8.0548403272       -1.4599208065
 H        -6.4970400689       -7.0227313077       -5.1060879667
 H        -6.4442719723       -8.7536995021       -5.5608029889
 H        -5.9165868772       -7.5487512242       -6.7717500686
 H        -4.2092706957       -9.6261083373       -6.2325548998
 H        -3.3045741150       -8.2384485918       -6.7707625131
 H        -2.8013821293       -9.2079716337       -5.2578184939
 Na       -0.2716605554        2.1894718213        2.7197961408
