155

 C         0.8142781925       -0.9217273707        2.3923951250
 C        -0.4502719211       -0.1241295179        2.2939774065
 C        -1.7005807659       -0.9416813837        1.7543016104
 C        -2.8698739360       -0.8301006327        2.9807839793
 C        -3.3592543715       -2.0165352222        3.8022862335
 C        -2.2748535627       -0.2363970258        0.5594195190
 C        -1.3627925104       -2.3811471036        1.4378690652
 O        -0.4492356978        1.0275233615        2.6122574243
 O        -3.3988575842        0.2332827493        3.0543021727
 C        -3.2152958694       -1.7485591099        5.3438895130
 C        -1.8396195057       -0.9759771686        5.6975145788
 C        -1.6786880611       -0.6106305602        7.1514847807
 C        -2.6698408509        0.5778126938        7.4104100338
 C        -2.2576369447        1.9354025026        6.9211671492
 O        -1.0515027553       -0.7147925071        4.8518300099
 O        -3.6967910417        0.3073376513        8.0018017459
 C        -2.1193671264       -1.8251261141        8.0859817995
 C        -0.2360066872       -0.0787355978        7.3210010219
 C        -3.4256018429        2.8060194814        6.4739527445
 C        -3.3376839746        3.4639649452        5.1128454027
 C        -4.2929491162        4.6560318147        4.8059237465
 C        -4.1694221239        5.1237229740        3.3498674129
 C        -4.8173380325        4.3253281532        2.2318480420
 C        -5.7084425733        4.0025334369        5.0584190673
 C        -4.0742917964        5.9352783476        5.6648060758
 O        -2.5797135883        3.0296112581        4.2608732000
 O        -3.3758539858        6.0562327101        3.1280687157
 C        -4.3634728387        4.8033896010        0.8531979110
 C        -3.9274019376        3.7183706091       -0.1172814542
 C        -3.2671937047        4.0829144302       -1.4301149097
 C        -1.5732789574        3.9453455587       -1.0354633890
 C        -0.6768986420        4.6869477916       -2.0107469552
 O        -3.9102107455        2.5267277924        0.1422719013
 O        -1.2740466587        3.3833767148       -0.0163556622
 C        -3.3793718216        3.0502954906       -2.6329493532
 C        -3.5713269332        5.5056800394       -1.8850983751
 C         0.6442197519        3.9563511817       -2.0773015916
 C         1.7511470170        4.6231777871       -2.9518934691
 C         3.0499994112        5.1511272647       -2.3677984071
 C         4.1398804364        3.9945238890       -1.9468627581
 C         4.2635071238        2.7129138157       -2.8513553623
 C         3.8849416569        5.8380747150       -3.4745972108
 C         2.7212214124        6.1184887384       -1.1984377941
 O         1.4916340732        4.6974286124       -4.1361449330
 O         5.0378331363        4.2364347141       -1.2122883389
 C         5.1088013011        1.6605346568       -2.1628581924
 C         4.1938317139        0.7128919360       -1.2465770857
 C         4.8262161712       -0.5827284895       -0.5944593166
 C         3.8602542012       -1.7871506743       -1.0419228395
 C         3.9030150715       -2.0316355777       -2.6007894374
 O         3.0934968333        1.1407660420       -0.9922732598
 O         3.2976412031       -2.5244594345       -0.2151936445
 C         6.3753889608       -0.7583944907       -0.9844956274
 C         4.6415810496       -0.5505333795        0.8822880074
 C         3.3465728403       -3.3424353283       -3.2245019614
 C         2.8678375406       -3.1071885350       -4.6911108999
 C         2.3131654832       -4.3746859799       -5.5150361024
 C         1.4754034914       -5.0587004397       -4.4318087502
 C        -0.0858354302       -4.7017038606       -4.1292831022
 C         1.4248539933       -3.9805247715       -6.8059466477
 C         3.5980514469       -4.9888832359       -5.9308244611
 O         2.9670520837       -2.0089982333       -5.2198858727
 O         1.9281130125       -5.9515913792       -3.6595929720
 C        -0.9921476990       -5.8474057520       -4.3774219762
 C        -1.7297535865       -5.8781177349       -5.7453982323
 C        -2.9400278848       -6.8382277674       -6.0365207588
 C        -3.7455068870       -7.1301050199       -4.7728615662
 C        -4.6813832231       -8.3481120080       -4.7706947380
 O        -1.3887161474       -5.0412647095       -6.6008950292
 O        -3.6317755477       -6.4921225633       -3.7252286361
 C        -3.7724542614       -6.0915740249       -7.0708737282
 C        -2.2162959452       -8.1972371441       -6.6425024949
 H         1.7536601381       -0.3391869026        2.2123359859
 H         0.9220947978       -1.3196410072        3.4042797026
 H         0.7650008313       -1.7285031735        1.7528606670
 H        -4.3633612173       -2.2269417008        3.6260189349
 H        -2.7230089777       -2.9350822288        3.5551397670
 H        -2.1047052228       -0.8837448391       -0.3653896103
 H        -1.7650254282        0.6595483793        0.3318844854
 H        -3.3546909613       -0.1380696389        0.6474083493
 H        -0.8856544123       -2.8410591688        2.3775779506
 H        -2.2861340954       -2.9546615588        1.2887047249
 H        -0.7440812792       -2.5308046644        0.5745665394
 H        -4.0664121642       -1.1147008924        5.5949532744
 H        -3.3405792531       -2.7123653779        5.8103605643
 H        -1.7321411783        2.4390731368        7.6785886065
 H        -1.5322657967        1.8636410690        6.0608735201
 H        -3.1493975369       -1.8258650076        8.1013576775
 H        -1.6897398069       -1.8086732757        9.0641961387
 H        -1.6475554183       -2.7125547079        7.6851847069
 H        -0.0298269623        0.0225660252        8.3565417013
 H         0.3537401063       -0.8447734333        6.7961859721
 H        -0.0284043978        0.8422146573        6.8745247008
 H        -3.7366107296        3.6263393377        7.0777601916
 H        -4.4002642983        2.2467396274        6.4973243405
 H        -4.4856553177        3.2863200210        2.3765876340
 H        -5.8509342891        4.4108068435        2.4223323648
 H        -5.8017615810        3.0243490212        4.5340245980
 H        -6.5722698822        4.6674280108        4.6761871001
 H        -5.7711584546        3.8593817807        6.0919838533
 H        -3.3626335232        6.5888950370        5.1678322948
 H        -5.1451478804        6.3240197231        5.8944748876
 H        -3.4900298496        5.6796619536        6.5872494334
 H        -4.9448514333        5.5415282421        0.3818537216
 H        -3.3586017568        5.2998278362        0.9920253627
 H        -1.1673301224        4.6511959312       -2.9885224752
 H        -0.5224171488        5.7150920856       -1.6575257745
 H        -3.6563148992        3.4406314117       -3.6166980985
 H        -4.1298385867        2.2798295357       -2.5108224360
 H        -2.4590499899        2.4536353227       -2.6454424852
 H        -3.0819835201        5.7817237577       -2.8096206077
 H        -4.6466856355        5.7661458564       -2.0306372589
 H        -3.1414536376        6.2271938498       -1.1734019882
 H         0.4594343316        2.8682091282       -2.4459924400
 H         1.0983319874        3.7609068611       -1.0993846165
 H         3.2493214942        2.4195400459       -3.2351652892
 H         4.8427328421        3.1252981404       -3.6877086654
 H         4.2741557733        5.1039335143       -4.1724923497
 H         4.6892314390        6.4469482743       -3.0722961422
 H         3.2009118582        6.4987966698       -4.0777871328
 H         2.0516446649        5.5749135879       -0.4488069607
 H         3.6351363267        6.5059568021       -0.7798673349
 H         2.3627054267        7.1019847056       -1.5733331179
 H         5.8094547405        1.2124786176       -2.8526949992
 H         5.9031028543        2.1347088756       -1.4399894740
 H         3.2257840749       -1.3336862954       -3.0637069549
 H         4.9067053857       -1.8838611828       -2.9381169341
 H         6.9876730480        0.0608916045       -0.6373912679
 H         6.6936118000       -0.9083835958       -2.0706804315
 H         6.6707626267       -1.7420661080       -0.6018501080
 H         3.8492008297        0.0563487442        1.2308235242
 H         4.3707527640       -1.5526564513        1.1964277005
 H         5.5744270951       -0.1726782881        1.3164836870
 H         2.5036921367       -3.5992174793       -2.6889133252
 H         4.0567192006       -4.1874367520       -3.3105275146
 H        -0.1217682357       -4.3996963915       -3.1389517986
 H        -0.3166520473       -3.8733095510       -4.7971234943
 H         1.3801727168       -4.7492229222       -7.5835479486
 H         2.0273483122       -3.1889525840       -7.1765753198
 H         0.5171462615       -3.5288397478       -6.4871939066
 H         3.4680356772       -5.8552658450       -6.6189116769
 H         4.2967936083       -4.2636614349       -6.3978196355
 H         4.0242504453       -5.2938346906       -4.9168247942
 H        -0.5244702557       -6.7729545032       -4.3165742627
 H        -1.8836686162       -5.8161362651       -3.6646992710
 H        -4.0980637759       -9.2432090446       -5.0507182817
 H        -5.1319358690       -8.5919948317       -3.8240650159
 H        -5.3412612098       -8.3235830284       -5.6512567181
 H        -4.2912927671       -5.2698827469       -6.5902473422
 H        -4.5517031459       -6.7277705935       -7.5078800624
 H        -3.0936743923       -5.7979075679       -7.7886836525
 H        -2.9724706101       -9.0078271759       -6.5968384397
 H        -1.9353189457       -7.9574999939       -7.6562561920
 H        -1.3283265034       -8.4929268876       -6.0819128050
 Na       -2.4180377242        2.0909368885        1.9618438902
