155

 C         0.1916508984       -1.4266674829       -0.1306491151
 C        -1.0312521466       -0.8538772313        0.6194036680
 C        -2.0489422370       -1.9806456460        1.2906706278
 C        -2.2646262923       -1.6120602053        2.7539611744
 C        -2.0170915477       -2.6804292126        3.8293365118
 C        -3.3265229161       -1.7674726315        0.3976043973
 C        -1.4600913597       -3.3624430903        1.0736621520
 O        -1.1942817755        0.3227502481        0.7110489006
 O        -2.6777358043       -0.5041003619        2.9737548003
 C        -1.9231503804       -2.0318473064        5.1677325169
 C        -0.9664472912       -0.8131814865        5.2355409675
 C        -1.1399741345        0.2901068568        6.3820645681
 C        -2.5732761757        0.8705441720        6.1474236475
 C        -2.7782367478        1.8248609681        4.9791119858
 O        -0.0145517492       -0.7256477623        4.4898766465
 O        -3.4997061814        0.6755588246        6.9097595046
 C        -1.0765138144       -0.4490302621        7.7186281694
 C        -0.0463809710        1.3359038751        6.2299317728
 C        -3.9433483588        2.8580559292        5.2117172001
 C        -4.1356327847        3.7393890157        3.9736984944
 C        -5.5111365924        4.6114042316        3.9481163385
 C        -5.6023460198        5.3163870407        2.5478414847
 C        -6.2643190471        4.5803460786        1.3228338915
 C        -6.7501435628        3.6631470341        4.2575146857
 C        -5.4386833177        5.7632656918        5.0239693000
 O        -3.2457143530        3.8644238647        3.1389839502
 O        -5.2807989575        6.4948431863        2.4562669312
 C        -5.3736930867        4.7355882984        0.0700167357
 C        -4.4485139085        3.5287632340       -0.0588476980
 C        -3.4143165539        3.6331767725       -1.2012411560
 C        -1.9351340327        4.0699274560       -0.4273458732
 C        -1.1238108652        5.2088857264       -1.0041812737
 O        -4.5904107784        2.6688508695        0.7530805348
 O        -1.6126072551        3.4472059147        0.5724252125
 C        -3.0215201554        2.2873936755       -1.9115398793
 C        -3.8349496760        4.6495460512       -2.3054708888
 C         0.3184597641        5.3565446156       -0.6098824745
 C         1.2122001530        4.4766755942       -1.4930417455
 C         2.7490745912        4.6429074272       -1.3803327853
 C         3.3365070494        3.4201567392       -0.5369148514
 C         4.3416283461        2.6313190159       -1.3366001323
 C         3.3451871966        4.6692197805       -2.8080018272
 C         3.2428698929        5.8641009487       -0.5098766405
 O         0.7224210530        3.7666489336       -2.3585061888
 O         3.1383761579        3.2704411451        0.6347888846
 C         5.3641685880        1.7637023282       -0.6307456679
 C         4.5676838282        0.5860625053       -0.0070046110
 C         5.2568424223       -0.7367137944        0.4033301318
 C         4.5415894743       -2.0220178660       -0.3333139990
 C         4.0673242008       -1.6159293905       -1.7833613987
 O         3.3815797402        0.6567666337        0.2578608122
 O         4.3843824497       -3.0477665103        0.2464529264
 C         6.7036600382       -0.8445841777        0.1192013012
 C         4.9511063982       -0.9983233596        1.9307497634
 C         4.3163691347       -2.6316791090       -2.8904533363
 C         3.2258352596       -2.6938669813       -3.9938193906
 C         3.3051305628       -3.8601842048       -5.0659695250
 C         1.9477713688       -4.7530559694       -5.0975490210
 C         0.7080281921       -4.2623826784       -4.2335322054
 C         3.4200395302       -3.1115388423       -6.3939191798
 C         4.4968243919       -4.7983942507       -5.0009571975
 O         2.2295729807       -1.9383419352       -3.9136115694
 O         1.8482184186       -5.7831050463       -5.7271052288
 C        -0.3323590267       -5.3774810627       -4.3066796773
 C        -1.3406749402       -5.0662553672       -5.4479742922
 C        -1.9604428911       -6.2868783434       -6.2165083175
 C        -3.1048675993       -6.7143273502       -5.2487155024
 C        -3.7131896344       -8.1042472635       -5.4566737676
 O        -1.6061048555       -3.8787924210       -5.6736005452
 O        -3.6976106450       -5.8298648997       -4.6478756046
 C        -2.5282012875       -5.8568372509       -7.6060483949
 C        -0.9183181474       -7.3874243035       -6.4601553570
 H        -0.2187044058       -2.1951747609       -0.8464281473
 H         0.6604766299       -0.7118039854       -0.7370167998
 H         0.8998921598       -1.7622618153        0.6333746837
 H        -2.9778013346       -3.3332917488        3.7575899861
 H        -1.2485033141       -3.3258935739        3.6522749523
 H        -3.1486345004       -1.7883446613       -0.7508721169
 H        -3.7399510919       -0.7980078866        0.6669812979
 H        -3.9500648282       -2.6608882616        0.4914608808
 H        -0.4980349759       -3.4151483993        1.5527989826
 H        -2.0821296498       -4.1451617359        1.5029447265
 H        -1.2312155037       -3.5567186414       -0.0063322776
 H        -2.8987391492       -1.7238813666        5.4568440241
 H        -1.4291893312       -2.7394281236        5.8241671093
 H        -1.9317656357        2.4170375982        4.6265716491
 H        -3.1091255028        1.2624848504        4.0735147573
 H        -2.0917931598       -0.7511212506        8.0914489508
 H        -0.7454438641        0.0355843138        8.6162475935
 H        -0.3505303321       -1.2197144121        7.6150431100
 H        -0.3021360854        2.3551481089        6.4600841953
 H         0.7698619558        1.1228645730        6.9702022803
 H         0.5399855050        1.3202325771        5.3070687109
 H        -3.8240955565        3.3736337361        6.1489791479
 H        -4.8419604014        2.2683548064        5.3879367086
 H        -6.3981374243        3.5148107976        1.5681831957
 H        -7.3533016336        4.8811982467        1.2509933258
 H        -6.6695263402        2.6790358993        3.8378338039
 H        -7.5893211759        4.1648042265        3.6823101304
 H        -6.9513846886        3.6790908576        5.2739343763
 H        -4.5696144159        6.4420653024        4.9311187351
 H        -6.3458627069        6.4712398985        4.9428912610
 H        -5.3444956108        5.4110411498        6.0884511371
 H        -5.9671209474        4.7837337106       -0.8210384991
 H        -4.7516343388        5.6586179178        0.0564483669
 H        -1.2093144086        5.0098475282       -2.0951483892
 H        -1.7510450417        6.0704682888       -0.6209014240
 H        -2.0300773548        2.3589063559       -2.3767532818
 H        -3.6795547088        2.0673100882       -2.7595986742
 H        -2.9414610419        1.5252352571       -1.1301432386
 H        -3.2284164098        4.4326280223       -3.1904971301
 H        -4.8718957486        4.6222893803       -2.5635190959
 H        -3.6958970593        5.6306283340       -1.8829273830
 H         0.6113524943        5.1572009999        0.4060412189
 H         0.6326442377        6.4124118608       -0.8721879406
 H         3.8645547306        2.1714247844       -2.2356588290
 H         4.9682346409        3.4555699889       -1.8331925876
 H         3.1703968175        3.8602761694       -3.4483845236
 H         4.3754157869        4.8528411442       -2.8478204836
 H         2.8537454648        5.4796543176       -3.3053692058
 H         2.8651621060        5.5895664047        0.4987990481
 H         4.3869811446        5.9263681261       -0.4198607196
 H         2.9734656441        6.8234630785       -0.9720170441
 H         6.1269846706        1.3197322053       -1.2744632173
 H         5.8500270794        2.4057733816        0.1593479514
 H         3.0196758463       -1.5570384644       -1.6768868906
 H         4.5439157319       -0.6879550330       -1.9887104322
 H         7.3285928598       -0.1291757528        0.7148576485
 H         6.7823157825       -0.6798253827       -1.0030824378
 H         7.1200156765       -1.7752075103        0.4917724336
 H         3.9226262741       -0.7839094925        2.2091704031
 H         5.3539425865       -2.0405951326        2.1672522953
 H         5.5833540229       -0.1799621099        2.4350509929
 H         4.4545834991       -3.5910093471       -2.4586602002
 H         5.2169954161       -2.4010688773       -3.3477260866
 H         1.0015805368       -4.2113414752       -3.1598888726
 H         0.3614746432       -3.3368198690       -4.5981347805
 H         3.3554470273       -3.8267085294       -7.2152807165
 H         4.3148783801       -2.4488151178       -6.4534399097
 H         2.6276842871       -2.3616021475       -6.3688413496
 H         4.3455630233       -5.6917754832       -5.5731224631
 H         5.3055926045       -4.2772391536       -5.5111512102
 H         4.7044300009       -5.1751004723       -4.0513410831
 H         0.1938455719       -6.4439564386       -4.2697618336
 H        -0.9447237553       -5.3332024751       -3.4367294402
 H        -4.7047426838       -8.1392265766       -5.1507157621
 H        -3.7820498881       -8.4987697296       -6.4331203011
 H        -3.1758422504       -8.8530189874       -4.8064753683
 H        -3.1713628609       -4.9616470569       -7.5914191481
 H        -3.1085915982       -6.6210382727       -8.0528303927
 H        -1.6857521515       -5.6428999342       -8.2898442225
 H        -1.4675317408       -8.1082149193       -6.9652954664
 H        -0.1853293024       -7.0288031070       -7.2255030775
 H        -0.5239928657       -7.8172113034       -5.5706415970
 Na       -2.8984402972        1.6916960805        1.7552590455
