155

 C         0.1347377077       -1.4070643182        0.0953256866
 C        -1.2444170008       -0.9179485643        0.2922746720
 C        -2.1847946084       -1.9410023264        1.1251850227
 C        -2.0795193958       -1.5357328801        2.6438532460
 C        -1.6520539152       -2.4864685619        3.6805743166
 C        -3.7488302933       -1.6276998865        0.8120332021
 C        -1.9048425155       -3.4450774200        0.8780440887
 O        -1.8197119646        0.1273634478       -0.0757797228
 O        -2.3486011159       -0.3599025484        2.9117779951
 C        -1.8600230620       -1.8632253992        5.1066339800
 C        -0.9159956584       -0.6855907789        5.2396136453
 C        -1.0891302146        0.3625905286        6.4709306887
 C        -2.4135164115        1.0311028701        6.2219764435
 C        -2.5152604985        2.0970724140        5.0834470780
 O         0.1255017215       -0.6707730624        4.6438145809
 O        -3.4714200731        0.6427119288        6.6802704008
 C        -1.0579055281       -0.4242452325        7.8357383953
 C         0.1008121634        1.3445968485        6.3490199027
 C        -3.8829327756        2.8478555371        5.1443359647
 C        -4.3763418793        3.4743357599        3.7687487128
 C        -5.4797255919        4.5201371056        3.8150231394
 C        -5.5268028834        5.2718905964        2.4392462302
 C        -6.0080338656        4.3115616039        1.1923036893
 C        -6.8812793532        3.8776720267        4.1868020499
 C        -5.2934083300        5.6795272865        4.8490058004
 O        -3.9091266109        3.2606225761        2.6400622417
 O        -5.2210134851        6.4367684297        2.3134484754
 C        -5.2215619286        4.6392163078       -0.1424701070
 C        -4.4463284340        3.3443870933       -0.4485514333
 C        -3.1912461390        3.4564026607       -1.4900515364
 C        -2.0329385967        4.0703899198       -0.5383435240
 C        -1.4457442390        5.4857430247       -0.6217203179
 O        -4.7294029304        2.3091251902        0.0863713795
 O        -1.6838156589        3.4245992536        0.4595494662
 C        -2.6652451778        2.0679430156       -2.1070570203
 C        -3.5788970811        4.3888618190       -2.6152799516
 C         0.0165291536        5.4798289873       -0.1175216910
 C         0.8974027762        4.6282429412       -1.1256374471
 C         2.5123124980        4.8208395247       -1.2132166789
 C         3.0802535142        3.7215711384       -0.2899870136
 C         4.1353320643        2.6966544205       -0.7325265525
 C         2.9370254670        4.8489977021       -2.6806760311
 C         2.9863441986        6.2027836044       -0.4764626266
 O         0.3452232143        3.8382920544       -1.8314247140
 O         2.6807852449        3.7246542477        0.9039341057
 C         4.7247132782        1.7241042589        0.3790048804
 C         4.2952743085        0.2817656324        0.2301797638
 C         5.3076864257       -0.9373995254        0.5511774943
 C         4.9673927168       -2.1088665943       -0.3491724573
 C         4.6259106777       -1.7711181909       -1.7583530847
 O         3.1395786509       -0.0135108139        0.1161041560
 O         4.8687286845       -3.2374697226        0.1068613831
 C         6.8153715699       -0.6497062340        0.2782536642
 C         5.1345285355       -1.3977633637        2.0085124925
 C         4.4050923563       -3.0243481213       -2.6536651658
 C         3.3705413327       -2.8138058051       -3.7943434962
 C         3.2954375068       -3.8197602137       -4.9146999905
 C         1.9993244725       -4.7209823528       -4.9227709006
 C         0.8090725685       -4.2176288128       -4.1477573416
 C         3.3799994229       -2.9711191933       -6.2025774510
 C         4.5661894914       -4.7407046192       -4.9899592905
 O         2.6844361438       -1.7716883022       -3.8463714347
 O         1.9758108776       -5.5693735192       -5.7452435676
 C        -0.3682810487       -5.0908604266       -4.2572936313
 C        -1.2473501075       -4.8283046192       -5.5484562294
 C        -1.8438559232       -6.1015619068       -6.2029652638
 C        -3.0497279404       -6.7277668546       -5.3202944923
 C        -3.7566766883       -7.9716893486       -5.9062765120
 O        -1.3214257857       -3.6978306227       -5.9708165611
 O        -3.3751361176       -6.2761918072       -4.2651447669
 C        -2.4802846931       -5.7467004086       -7.5852877469
 C        -0.7086959067       -7.1753518917       -6.5015434030
 H         0.0598779675       -2.1344382926       -0.7631635655
 H         0.7679112959       -0.6111933294       -0.2311625621
 H         0.3821992100       -1.8035413863        1.0273878915
 H        -2.3852459089       -3.3605979110        3.6236400432
 H        -0.7181696907       -2.8392961152        3.4335408721
 H        -4.1347836617       -2.2401446355       -0.0923614827
 H        -3.8877380316       -0.5529290069        0.6618125500
 H        -4.3252820063       -1.9437375281        1.7033631763
 H        -0.8742896045       -3.8054736950        1.1311803957
 H        -2.6118466845       -4.0987670739        1.2519137308
 H        -2.0300616977       -3.5314449996       -0.1856458358
 H        -2.8846163817       -1.5736017893        5.1471385922
 H        -1.5151161396       -2.6518441793        5.7831012727
 H        -1.7286687397        2.8900453198        5.2220245889
 H        -2.3277590482        1.7353496481        4.0990635386
 H        -1.6862718728       -1.3860044235        7.7291723420
 H        -1.4639950960        0.0963154383        8.7052067056
 H        -0.0758722728       -0.8074246097        8.0877617297
 H         0.1651046782        1.9289439135        7.3263918649
 H         1.1929828174        0.9488102445        6.3524056443
 H        -0.0387955260        2.0390791049        5.4902656407
 H        -4.0272590708        3.5432001264        5.9822854000
 H        -4.5393504741        2.0950182311        5.5873043101
 H        -5.9584537023        3.2624317442        1.4764686767
 H        -7.1340468011        4.5754136469        1.0308698225
 H        -7.2839244703        3.2289370287        3.3680707323
 H        -7.5790549329        4.7781780701        4.4406736658
 H        -6.8940604987        3.3934031785        5.1028558615
 H        -4.4952828405        6.3257126566        4.6894849113
 H        -6.1358031823        6.4509986693        4.8747211777
 H        -5.2544870605        5.2888944361        5.8593439732
 H        -5.9190034526        4.8004083983       -0.9272325747
 H        -4.6344494686        5.5502156364       -0.0641314493
 H        -1.5733275745        5.7790400909       -1.6340469295
 H        -1.9780060492        6.0373684228        0.1442203400
 H        -2.6604384314        2.1943208444       -3.1888181820
 H        -3.3514430997        1.3070202766       -1.8057014314
 H        -1.6242184064        1.8406201941       -1.8220122220
 H        -2.7184257709        4.4858217068       -3.3247772770
 H        -4.2733063453        3.8265338539       -3.1991050326
 H        -4.0742067009        5.2896957633       -2.2763154479
 H         0.1084475428        5.0315424240        0.8607291964
 H         0.4194067541        6.5275088118        0.0611031580
 H         3.8359151566        2.0613072048       -1.5699287358
 H         5.0045744818        3.3066831141       -1.1451705228
 H         2.4107523510        4.1549977154       -3.3124516752
 H         3.9989642482        4.7358985650       -2.7651242122
 H         2.7858331266        5.8603775603       -3.1641473169
 H         3.0423212205        5.9645854459        0.6155105078
 H         4.0270488385        6.2834360667       -0.7564765526
 H         2.3225838610        6.9989260123       -0.6775546919
 H         5.7951228607        1.7786162889        0.6831492172
 H         4.2172653353        1.9794904465        1.3524881730
 H         3.5903926974       -1.4461428178       -1.5568118356
 H         5.3420712142       -1.0165419592       -2.1718799867
 H         7.3461546846       -0.0625823338        0.9922291290
 H         6.9357975980       -0.1414300745       -0.7130685217
 H         7.2932192191       -1.5790111232        0.1766826790
 H         4.0790326717       -1.5210011558        2.0704842076
 H         5.7903256277       -2.2527899482        2.2403628141
 H         5.5085665189       -0.6238763285        2.7464386293
 H         4.1021492300       -3.8827467490       -2.0186125889
 H         5.3304380529       -3.2625157791       -3.1040471483
 H         1.1279841921       -4.1868433840       -3.1296416799
 H         0.5302457622       -3.3115244825       -4.5173188237
 H         3.0268422522       -3.6221560743       -6.9947270148
 H         4.4296687064       -2.5865466745       -6.2855366206
 H         2.7010520293       -2.1421106638       -6.2133163073
 H         4.3986070000       -5.4773625526       -5.7598449745
 H         5.4107506368       -4.1154546509       -5.3585769383
 H         4.7902478607       -5.2804151191       -4.0875217636
 H         0.0189201454       -6.1614228131       -4.3223314824
 H        -0.8749739576       -5.0086456753       -3.3387539103
 H        -4.2683059486       -7.8746747391       -6.8113183013
 H        -3.0442821305       -8.7096125793       -6.2238328013
 H        -4.3810515162       -8.5044705786       -5.1436799718
 H        -3.2215584824       -4.8890073697       -7.4479256796
 H        -3.0018245735       -6.5263971632       -8.1647058137
 H        -1.7874803219       -5.2234199636       -8.2624822618
 H        -0.8778981793       -7.6701271958       -7.4465454876
 H         0.3156151172       -6.6800450733       -6.6734760025
 H        -0.6605229481       -7.9069146420       -5.6657780197
 Na       -2.6724782573        1.8039751364        1.4209477152
