155

 C         0.1255703657       -1.5286201813        0.0315114030
 C        -1.3850305727       -0.9646965888        0.1864330637
 C        -2.4431119007       -1.8746693981        1.0824547056
 C        -2.1794307113       -1.3424364488        2.5560202539
 C        -1.6849755519       -2.3328546079        3.6233380164
 C        -3.9139164149       -1.6251955327        0.7762717463
 C        -2.0484525394       -3.4017162942        0.8771774898
 O        -1.8180344738       -0.0170471671       -0.3885243446
 O        -2.1987903639       -0.1585916690        2.8193925547
 C        -1.7959721565       -1.7112030546        5.0237676465
 C        -0.7116823654       -0.6612303840        5.3270635575
 C        -0.9781808255        0.3867371834        6.4851406219
 C        -2.3417904692        1.0846559612        6.0985620096
 C        -2.5053052020        2.3721132395        5.2576568709
 O         0.2518389022       -0.5807005482        4.5889363150
 O        -3.3623932175        0.6262184990        6.5448571462
 C        -1.1934107329       -0.2723946670        7.8141964351
 C         0.2696276543        1.3179829396        6.5988737256
 C        -4.0055872232        2.7838629883        5.1851159004
 C        -4.4239080503        3.3238053763        3.8130630904
 C        -5.5318580623        4.5364620411        3.7356284405
 C        -5.5647272499        5.1711681781        2.2257711591
 C        -6.1492524982        4.3864535428        1.0100383172
 C        -6.8873748200        3.9601821577        4.0740451317
 C        -5.0952114607        5.6616677476        4.7195713195
 O        -4.2226967155        2.7466026335        2.7596853915
 O        -5.0661379616        6.2835176534        2.0084052971
 C        -5.1634433710        4.4236405734       -0.1425041194
 C        -4.2951822125        3.2331228092       -0.5628787702
 C        -3.0953313572        3.5925504195       -1.4343978541
 C        -1.9949915923        4.0682940521       -0.4244344947
 C        -1.4685720429        5.5534175633       -0.5455180639
 O        -4.5112586966        2.0759747175       -0.1654583607
 O        -1.6439722419        3.2813990802        0.4014242827
 C        -2.5946834754        2.2524136749       -2.0728123110
 C        -3.4262179459        4.5919656214       -2.5843300875
 C        -0.0219821345        5.6644007336       -0.1749866811
 C         0.7989508165        4.7713246858       -1.0217407726
 C         2.3744954232        4.9154103055       -1.0273445342
 C         2.8559951316        3.7937392811        0.0685138785
 C         3.7262705494        2.6460665195       -0.3788597396
 C         2.7634495133        4.7128656631       -2.4924267701
 C         2.8087117124        6.3464326663       -0.5251540245
 O         0.3052070987        3.8322646956       -1.6603928893
 O         2.4440670591        3.8874290623        1.1749529379
 C         4.3436840585        1.8129765246        0.7509164777
 C         4.2186049153        0.2254299335        0.4700266192
 C         5.2755577288       -0.8713088274        0.6600029984
 C         5.0346322141       -2.1535063892       -0.2812857090
 C         4.8482723165       -1.9348639540       -1.8273182787
 O         3.1061397472       -0.0928498787        0.0329747869
 O         5.1595325909       -3.2847320820        0.0232319086
 C         6.6910793925       -0.3351376497        0.4533274099
 C         5.1204036409       -1.3635773227        2.1572766796
 C         4.4597185521       -3.2554380118       -2.6096677642
 C         3.5616669114       -2.8771400509       -3.7785633556
 C         3.4010651168       -3.7804997574       -5.1167498352
 C         2.0009962071       -4.5832269906       -4.9427382569
 C         0.8385747388       -3.9930731995       -4.1141044850
 C         3.3569790089       -2.7851190739       -6.4197805500
 C         4.4374267666       -4.9202962081       -5.1527691497
 O         2.8238599301       -1.9256312142       -3.6615446866
 O         1.8820582842       -5.6534284980       -5.5846790608
 C        -0.3988750587       -5.0274366104       -4.1619931798
 C        -1.1673598773       -4.8215487949       -5.4668379730
 C        -1.7778105590       -6.0365924987       -6.2367550686
 C        -2.9450342190       -6.7196352047       -5.4141863292
 C        -3.7325647749       -7.8244398330       -6.0281410999
 O        -1.0903338237       -3.7820964086       -6.1187727034
 O        -3.0028490719       -6.4681085324       -4.2060429868
 C        -2.4271327557       -5.4597626459       -7.5521972807
 C        -0.6957841060       -7.1688201306       -6.5891902339
 H         0.1094237639       -2.2539484017       -0.7505508244
 H         0.7825582328       -0.7154310730       -0.2373350316
 H         0.3755371592       -2.0398776456        1.0517635392
 H        -2.0704834956       -3.3244705961        3.5859939662
 H        -0.5277429286       -2.3924433855        3.4464035165
 H        -4.0428920338       -2.0593820180       -0.1983663383
 H        -4.0753614113       -0.5344738772        0.6767521367
 H        -4.6074910914       -2.0211817669        1.5339572676
 H        -1.1131466879       -3.6431459645        1.2763398887
 H        -2.8262529518       -4.0773753470        1.3811428884
 H        -2.1319158694       -3.7162182108       -0.1885393429
 H        -2.7998076268       -1.2479918429        5.1823386821
 H        -1.5579120053       -2.5566567862        5.6353816730
 H        -2.0059300080        3.2660396514        5.5297573320
 H        -2.0530881993        2.1829389931        4.2245871769
 H        -1.4871402383       -1.3026896287        7.7499364717
 H        -1.9343444765        0.3935960593        8.2831613503
 H        -0.3479812976       -0.3791478586        8.5120375040
 H         0.2687370863        2.0356874120        7.3664360665
 H         1.0782813493        0.7242230264        6.8551025940
 H         0.4899863739        1.7863626239        5.6484029398
 H        -4.1568932786        3.6073051032        5.8551431117
 H        -4.6187943494        2.0518153913        5.7045622121
 H        -6.1299969256        3.3532419320        1.4457028400
 H        -7.1020010582        4.7072822282        0.7716233781
 H        -6.9916425426        3.0480699576        3.5383021563
 H        -7.6968302122        4.5953411556        3.9444328254
 H        -6.9263083713        3.6703810066        5.1623606298
 H        -4.0720961752        6.1588753523        4.5670264318
 H        -5.6918184549        6.5402023537        4.6250896008
 H        -5.2445305492        5.3848780126        5.7826723759
 H        -5.6833099092        4.8868166948       -1.0337594524
 H        -4.4010952908        5.1733552689        0.1646598007
 H        -1.5523579931        5.8211026986       -1.6452396271
 H        -2.1288018233        6.1288819042        0.1502201934
 H        -2.6663044060        2.3832127857       -3.1554005506
 H        -3.1567446212        1.4137391356       -1.5975678677
 H        -1.5581607026        2.0955599097       -1.8828260658
 H        -2.6436821544        4.5833017790       -3.2969023244
 H        -4.3836315771        4.3176444622       -3.0873679614
 H        -3.4446402819        5.6032808759       -2.1391059022
 H         0.2484221909        5.5008288721        0.9068870497
 H         0.3660099842        6.6433489324       -0.3039370660
 H         3.0542585134        1.9460458664       -0.9728676092
 H         4.5723000306        2.8147533159       -1.0330677773
 H         2.2743018308        3.8075401366       -2.8358852429
 H         3.8378982215        4.6512781497       -2.5864209218
 H         2.5288089754        5.4939555398       -3.1027389263
 H         2.4905034609        6.5890642955        0.4769086028
 H         3.9004216266        6.2313505152       -0.5868705437
 H         2.2860131686        7.0642113956       -1.2471663297
 H         5.3507470311        2.1439958158        0.9309259345
 H         3.9038998099        1.9890096813        1.7256797703
 H         4.0608356441       -1.2515661198       -2.0596284145
 H         5.8001549136       -1.6401804682       -2.1874397210
 H         7.0103196412        0.5018856994        1.1671852330
 H         6.7336293892        0.1418073645       -0.5356600894
 H         7.4413367177       -1.1943669548        0.3391888709
 H         4.0211777557       -1.5027098679        2.3406633326
 H         5.7016542553       -2.3014902145        2.1318506335
 H         5.6445444710       -0.8176207473        2.9242548671
 H         3.7670301400       -3.8445748694       -2.0698663469
 H         5.3204066329       -3.9064997724       -2.8913322645
 H         1.3047176423       -3.8046077286       -3.1085101429
 H         0.4449575013       -3.0548625617       -4.6883439627
 H         3.1959621804       -3.3250304845       -7.3553858365
 H         4.2275149620       -2.1681748726       -6.3903610213
 H         2.3768454476       -2.2453001876       -6.3807097269
 H         4.1822660278       -5.4890632883       -6.0480989648
 H         5.4479266008       -4.5870198234       -5.2579010366
 H         4.4166387851       -5.5706253116       -4.2465624912
 H        -0.1329994381       -6.0742276286       -4.0015363946
 H        -1.1236642098       -4.7651555663       -3.3060024933
 H        -4.2307090957       -7.6776559178       -7.0163761247
 H        -3.1634552366       -8.7379195798       -6.2123219346
 H        -4.5420492437       -8.1334714609       -5.3823590046
 H        -3.3773987512       -5.0506236153       -7.4047658514
 H        -2.5666384109       -6.2427653115       -8.2817146033
 H        -1.9129921429       -4.6694217209       -8.0904417465
 H        -1.1469552843       -8.1174243020       -6.9451972557
 H        -0.0308069467       -6.8409109489       -7.3366062114
 H        -0.1339788785       -7.4154680160       -5.7105920217
 Na       -2.7606864382        1.2688683194        1.2653521474
