155

 C         0.0691894411       -1.7358602931       -0.1078067719
 C        -1.4166684829       -1.1671265729        0.0461620387
 C        -2.4320314569       -1.9382417293        1.1057371626
 C        -2.1268979700       -1.3207804581        2.5181656492
 C        -1.7466234632       -2.2594575321        3.6611591400
 C        -3.8830585219       -1.5490850067        0.6194667678
 C        -2.2965489028       -3.4911610428        1.0758449612
 O        -1.7963930085       -0.1389401423       -0.5012140971
 O        -2.1891710312       -0.1067495820        2.7737499453
 C        -1.6614373669       -1.6724683406        5.1501646835
 C        -0.5559239228       -0.4969823626        5.3619319222
 C        -0.9697536065        0.5228302528        6.4307277903
 C        -2.3903334296        1.1898642849        6.0594544831
 C        -2.4686033234        2.3781725804        5.2687182644
 O         0.4204150132       -0.3746954064        4.6825228659
 O        -3.4077711531        0.5478215332        6.3287344880
 C        -1.2045333082       -0.2777846032        7.7163636648
 C         0.1234919338        1.5706502833        6.5764160760
 C        -3.9129203796        2.8991603798        5.1495304044
 C        -4.4523180638        3.1218571486        3.7557546556
 C        -5.3834721647        4.4343763689        3.6110050415
 C        -5.3746859029        4.9508775394        2.1581106536
 C        -5.9871868212        3.9788254237        0.9911002966
 C        -6.8816714392        4.0354320887        3.9286970072
 C        -4.9471257471        5.6021051934        4.4889804335
 O        -4.2716187678        2.3355782507        2.8361695635
 O        -4.8441568542        5.9781365080        1.8942070777
 C        -5.3841923607        4.3645264420       -0.4576752828
 C        -4.3308373552        3.2874946972       -0.6728526156
 C        -2.9688277126        3.6035428295       -1.4620787225
 C        -1.9839024684        4.0267688320       -0.3795339260
 C        -1.6342562397        5.5757027990       -0.2765077295
 O        -4.5310223081        2.2038438643       -0.1900982034
 O        -1.6788102342        3.2756513247        0.5812608476
 C        -2.5129222864        2.4016905488       -2.3777629801
 C        -3.3882976549        4.6952818661       -2.4796543744
 C        -0.1482839144        5.7821809408       -0.0544898181
 C         0.7688586362        4.7992333937       -0.9361982319
 C         2.2760641466        4.8722127022       -0.8492671128
 C         2.6962148146        3.8126428194        0.3450798979
 C         3.2937462303        2.4763296664       -0.1210271454
 C         2.9472635035        4.3660226158       -2.1258329585
 C         2.8799091608        6.2478783010       -0.5146778055
 O         0.1972703679        3.9525585542       -1.5634664793
 O         2.4515756474        4.1006768821        1.5065686386
 C         3.9380490567        1.5125020037        0.9233313178
 C         3.8408031880        0.1440589737        0.3753241760
 C         5.1777752601       -0.7041337610        0.6635143097
 C         5.1409565931       -2.0780747652       -0.2725026990
 C         4.9956995615       -1.9231463244       -1.7334811406
 O         2.9029257404       -0.3942694565       -0.1676413920
 O         5.3888123694       -3.1501987819        0.3159320456
 C         6.5430676317        0.0250186531        0.5153734680
 C         5.1283295634       -1.2635850984        2.1315620279
 C         4.6391286434       -3.1446587317       -2.5875647850
 C         3.5726813709       -2.8630664345       -3.7540964810
 C         3.4473448779       -3.8535465729       -5.0284226908
 C         2.0187985444       -4.6735434474       -4.8908751539
 C         0.8461538504       -3.9844867135       -4.0204788742
 C         3.2213939962       -2.9001839867       -6.1958210218
 C         4.5841292654       -4.9016643810       -5.3565383623
 O         2.8421374799       -1.8856125908       -3.7077678020
 O         1.7535449751       -5.6467830586       -5.4644343865
 C        -0.4831881222       -4.8212746295       -4.1477575571
 C        -1.0143663993       -4.6970052772       -5.6288623923
 C        -1.6866848190       -5.9879553563       -6.3800715536
 C        -2.7001998894       -6.6288719560       -5.3599077779
 C        -3.7678921911       -7.5658858225       -5.9527761921
 O        -0.9398602218       -3.6597278714       -6.2137877370
 O        -2.6106698757       -6.6384488587       -4.1482447132
 C        -2.4279078833       -5.5080532334       -7.6158467707
 C        -0.6116782110       -7.0624917827       -6.8049425887
 H        -0.0176446958       -2.6513193302       -0.7624848364
 H         0.7418192895       -0.9737307307       -0.5781356592
 H         0.3341865779       -2.0900270196        0.8121120303
 H        -2.5783644432       -3.0217149066        3.6173977169
 H        -0.8712356740       -2.7769174793        3.4288002672
 H        -3.9046787881       -1.3151674364       -0.4085181424
 H        -4.3227092705       -0.7734018626        1.2557409309
 H        -4.5281458318       -2.3388674978        0.9404574551
 H        -1.2080713490       -3.8332109451        1.2591580952
 H        -2.8965939415       -4.0077122320        1.7555388051
 H        -2.5770322731       -3.8290433954        0.1159195508
 H        -2.6161642216       -1.1936549483        5.3311836786
 H        -1.4211935511       -2.5467202686        5.8419826024
 H        -1.9486759450        3.2235716357        5.8249615398
 H        -1.9559452911        2.3257508233        4.3654645598
 H        -1.9775740239       -1.0089406886        7.5790047246
 H        -1.2209797336        0.3778883202        8.5489418120
 H        -0.4193914262       -0.9952948817        7.8159975594
 H        -0.3932456502        2.3932196261        7.1605505569
 H         1.0435048992        1.2298410117        7.1162105439
 H         0.3948452605        2.0038639472        5.6270737541
 H        -4.0963168460        3.7470650037        5.8892347399
 H        -4.6047638366        2.1115299761        5.6294244870
 H        -5.8230227334        2.9521018400        1.1308362133
 H        -7.0936443281        4.3080450912        1.0353006319
 H        -7.2753647184        3.1417093177        3.3595997482
 H        -7.4407297830        4.9621605028        3.6369858358
 H        -7.1480643988        3.7481209417        4.9656836991
 H        -3.9234240760        5.7689687066        4.4768100919
 H        -5.3542393412        6.5647763261        4.1949429382
 H        -5.1901168958        5.4782694281        5.5006229602
 H        -6.1871225364        4.1553978706       -1.1298485121
 H        -5.0631677311        5.4039190938       -0.5712852478
 H        -1.9014923998        5.9920450761       -1.1959266816
 H        -2.2568307526        5.9437271389        0.5050873307
 H        -2.7422944530        2.6069066910       -3.4061251783
 H        -2.8443378886        1.5385846565       -1.8966680046
 H        -1.3989510969        2.3483585296       -2.3371875309
 H        -2.5028124184        5.2845322045       -2.8635207689
 H        -3.9619754152        4.2334955017       -3.2556275692
 H        -3.8957294870        5.5045689048       -1.9931536257
 H         0.0941111404        5.5410268389        0.9629614952
 H         0.1603273972        6.8708750400       -0.0114961025
 H         2.5478166623        1.9616101611       -0.6148759417
 H         4.1486835628        2.5950266277       -0.7747207049
 H         2.7495644233        3.2840044998       -2.3183774220
 H         4.0391170060        4.6116386584       -2.1059093957
 H         2.5562647631        5.0296612593       -3.0085133659
 H         2.3943523096        6.5557778438        0.4019335817
 H         3.9305129384        6.0929207842       -0.5103515375
 H         2.5272166295        6.8745565653       -1.2466884377
 H         4.9679911856        1.7928347675        1.1889501427
 H         3.5339854874        1.6221822741        1.9316115603
 H         4.2714474308       -1.0548216956       -1.9112145791
 H         6.0685655832       -1.6336143575       -2.0949263278
 H         6.5258279610        0.8801698864        1.0794651184
 H         6.8626588186        0.3405986652       -0.4726331262
 H         7.3271997033       -0.5841208717        0.8190031585
 H         4.1859897802       -1.7454764004        2.3105461432
 H         5.9346315762       -1.8954625759        2.3947607407
 H         5.2159376718       -0.4091676502        2.7752544561
 H         4.3111386993       -4.0701445075       -1.9463465784
 H         5.5534933454       -3.4254960810       -3.1108379604
 H         1.1306720798       -3.8963982655       -2.9862689331
 H         0.7541389523       -3.0906208424       -4.5415168667
 H         2.9477589823       -3.4569764354       -7.0831490333
 H         4.2355967981       -2.4864445584       -6.3607917338
 H         2.4021279484       -2.2632998030       -6.0729343147
 H         4.4987857808       -5.1364329474       -6.4235650434
 H         5.6279446706       -4.5307633850       -5.1165495602
 H         4.5416690684       -5.7369132417       -4.6730312822
 H        -0.0732525416       -5.8119397538       -4.0157663076
 H        -1.1564662350       -4.6079796741       -3.3381453100
 H        -4.2373994233       -7.2865013578       -6.9069470062
 H        -3.2697732418       -8.5219696589       -6.1958386465
 H        -4.6428004229       -7.8449785163       -5.3817403504
 H        -3.3734355961       -4.9487146092       -7.5159012483
 H        -2.6447382635       -6.2973238191       -8.3556492748
 H        -1.8258834947       -4.8881440489       -8.2254029102
 H        -1.1917251561       -7.9562199630       -7.0583195306
 H        -0.0324095902       -6.7018405360       -7.6923913473
 H         0.1041810253       -7.4149352258       -6.0443212739
 Na       -2.9724128586        1.3294637153        0.9268702222
