155

 C        -0.3807857283       -2.7312876686       -1.1408650421
 C        -1.2747757695       -1.8908756450       -0.2147735895
 C        -1.9392211201       -2.5821942488        1.0232510015
 C        -1.8819232660       -1.7916031980        2.2944286116
 C        -0.9857871296       -2.2864715282        3.5066458296
 C        -3.5272680386       -2.6138192406        0.4725450123
 C        -1.4639259681       -4.0171659773        1.2672299609
 O        -1.4433621890       -0.7013322974       -0.4310098389
 O        -2.4190763300       -0.6825761449        2.4778553810
 C        -1.0717784421       -1.5070491608        4.8619640546
 C        -0.5849618091       -0.0356757858        4.6634551915
 C        -1.0175273984        0.8837523458        5.8691337360
 C        -2.5087942601        1.3652907450        5.8887327234
 C        -2.8767612569        2.3317781312        4.8079912509
 O        -0.0160511626        0.3525973802        3.6747785478
 O        -3.2459012715        0.8570474697        6.6877072203
 C        -0.6455559581        0.1908110124        7.2144515255
 C        -0.2334924085        2.2703460256        5.7168598628
 C        -4.3901410882        2.2965711827        4.3448878526
 C        -4.5672284526        3.0017828596        3.0699211634
 C        -5.7681951050        4.1238647385        2.9670956195
 C        -5.8076338801        4.4460472813        1.3418888018
 C        -6.2760438779        3.3392518395        0.4567606618
 C        -7.1271695605        3.5859216189        3.5158430321
 C        -5.2887210592        5.3031144417        3.8391538854
 O        -3.9390269491        2.7124918527        2.0568832480
 O        -5.3848010840        5.4927910557        0.9012964446
 C        -5.7530360338        3.5071202146       -1.0043756801
 C        -4.3627859188        2.9059367802       -1.1295634569
 C        -3.0701980119        3.8110975010       -1.5562445638
 C        -2.0366913465        4.0590157452       -0.2961533428
 C        -1.3012847319        5.4129105671       -0.3068457506
 O        -4.2950025151        1.7120975198       -0.9272822352
 O        -1.7685062026        3.0998824220        0.4382418439
 C        -2.1691068425        3.0500783965       -2.5149502457
 C        -3.5200758746        5.2760036347       -2.0144455666
 C         0.0249382840        5.4680164880        0.5713417749
 C         1.1739824947        4.8962206324       -0.2799478504
 C         2.4950871903        4.5059600603        0.4399330575
 C         2.0190582087        3.1362509975        1.2702457528
 C         1.4873084342        1.9563348852        0.4718231384
 C         3.6071804623        4.2828749093       -0.5638946064
 C         2.9299573626        5.5571971501        1.4109941347
 O         1.1117595219        4.8578104271       -1.5097235151
 O         2.0042893771        3.2265601131        2.4641689219
 C         1.2283410000        0.7165682999        1.3083210357
 C         2.2189308966       -0.4186459993        1.0822440337
 C         3.8171240908       -0.4415157627        1.0834901699
 C         4.2216374126       -1.3617018779       -0.1276980326
 C         4.6332759683       -0.7476850514       -1.4758655866
 O         1.7925245282       -1.4751449818        0.6402854166
 O         4.3089837187       -2.5457709005        0.0705353057
 C         4.3834288679        1.0519303795        0.9481109810
 C         4.2466261567       -1.0770430209        2.4022243429
 C         5.1392513929       -1.8135210242       -2.4835188318
 C         4.1429351295       -2.0472353723       -3.5849978198
 C         4.3247604428       -3.3613969237       -4.4457341985
 C         3.0871231945       -4.1307831634       -3.8875349392
 C         1.6297617992       -3.7607538869       -4.4442699437
 C         4.2027274031       -3.1126865263       -5.9842964582
 C         5.6516400197       -4.1392781174       -4.2517217719
 O         3.2488730478       -1.2765280769       -3.7261470380
 O         3.2166713162       -4.9168658153       -2.9967857843
 C         0.9229036823       -5.0743117986       -5.0843667020
 C        -0.3237876365       -4.7338406013       -5.8787513032
 C        -1.1790050483       -5.8815542272       -6.5838614262
 C        -2.3855805176       -6.2240784016       -5.6589263269
 C        -3.6209173436       -5.3295221325       -5.5208036008
 O        -0.8272072366       -3.6468457251       -5.9448349852
 O        -2.3438635751       -7.2208611046       -5.0170920050
 C        -1.7220781419       -5.3357491155       -7.9164782721
 C        -0.3750101049       -7.1382117709       -6.8491614086
 H        -0.8111975721       -3.7199648541       -1.2700482480
 H        -0.3774924522       -2.4112761126       -2.1611881782
 H         0.6946018868       -2.6531008574       -0.8661020906
 H        -1.2227381750       -3.2798379943        3.7804097290
 H         0.1156374228       -2.2846007817        3.1038368133
 H        -3.8428132784       -1.4927751825        0.3953111382
 H        -4.1655517731       -3.2126684447        1.0562489067
 H        -3.5717044665       -3.0772271330       -0.5135010520
 H        -0.5074996264       -4.0888039097        1.6612786961
 H        -2.1181405558       -4.4159154952        2.0732937215
 H        -1.5604853223       -4.6615019370        0.4125712953
 H        -2.1195426544       -1.4223930327        5.0671403963
 H        -0.5535737565       -2.0415604035        5.6917738921
 H        -2.6008981770        3.4101299038        5.1225562830
 H        -2.3473247693        2.0888477460        3.8987814242
 H        -0.2873244359        0.9099157975        7.9269181931
 H         0.1072103690       -0.5660565532        6.9873525208
 H        -1.5984859640       -0.1338758752        7.6823466624
 H        -0.4594409964        2.8286938860        6.6609059075
 H         0.9004595423        2.1043677561        5.6514294106
 H        -0.5027342461        2.7408702961        4.7614359803
 H        -4.9543220911        2.7517680086        5.1255541195
 H        -4.7217002712        1.2739651825        4.3049967390
 H        -6.1182808087        2.3406524678        0.7943055829
 H        -7.4037956762        3.3620335653        0.4778562805
 H        -7.6009278131        2.9093552420        2.7778282945
 H        -7.8327840511        4.3979658494        3.8971312475
 H        -6.9536084496        2.9348275113        4.2758011650
 H        -4.3646119766        5.6324267094        3.4777251561
 H        -6.0731261043        6.0828994658        3.7125157885
 H        -5.1278778043        4.9873463633        4.8255684866
 H        -6.4174898952        3.0845137391       -1.8501428925
 H        -5.6451259627        4.5785643649       -1.1153217122
 H        -1.0182409769        5.7049569167       -1.3597164311
 H        -2.1083218100        6.1438742039        0.0411843931
 H        -2.5839552827        3.1513887388       -3.5178692556
 H        -2.1292854204        1.9753626430       -2.1702794334
 H        -1.1711803320        3.4182355900       -2.5541960384
 H        -2.7463400079        5.8962242266       -2.2989971407
 H        -4.2674020831        5.1742844059       -2.8295948227
 H        -3.9912056961        5.8740083273       -1.2131610093
 H        -0.1466633314        4.9700709935        1.5199591288
 H         0.2653380883        6.5069370598        0.6943509978
 H         0.5332242772        2.4021873924        0.0606584124
 H         2.0156525406        1.7161988824       -0.5205255273
 H         3.2793867227        3.9214674346       -1.5780953931
 H         4.5446952803        3.7957511345       -0.1262785945
 H         3.9437257264        5.3137296729       -0.7273483154
 H         2.1457586097        5.9808911667        1.9713651036
 H         3.8102877595        5.1888788017        1.9004415850
 H         3.3063153305        6.3927522739        0.8319522224
 H         1.2576912030        1.1248250602        2.3586887379
 H         0.2670891293        0.2105224400        1.0646856816
 H         3.8153918326       -0.2419239337       -1.9616337565
 H         5.3339641684        0.1278475450       -1.3162340684
 H         3.9341385719        1.6120497752        1.7156587249
 H         4.1556514463        1.4988439142        0.0212124210
 H         5.4255094178        1.1234023362        0.9990718555
 H         3.9844623903       -2.0590377687        2.4097724660
 H         5.3065786040       -1.0506658148        2.5134998457
 H         3.8246627596       -0.6214350635        3.2666265639
 H         5.4256203328       -2.7238466639       -1.9166095131
 H         5.9505853758       -1.3504756077       -2.9833521686
 H         0.9475382999       -3.2850795467       -3.7502254390
 H         1.7312614945       -3.0515860288       -5.3586694346
 H         3.7962386914       -3.9020149463       -6.5790979588
 H         5.1781597528       -2.9489266634       -6.3300111094
 H         3.4919357109       -2.2859842428       -6.1799211785
 H         5.5181475040       -5.1737318068       -4.6517425566
 H         6.3955223952       -3.6870574826       -4.8980852913
 H         6.1463400428       -4.1036401690       -3.2254490654
 H         1.5965101189       -5.3974763807       -5.8711097135
 H         0.7524683557       -5.9065654036       -4.4176989999
 H        -3.8145416031       -4.6330340579       -6.3277851840
 H        -4.5105725026       -5.8921959457       -5.5620543820
 H        -3.4773186362       -4.7738421285       -4.5838260365
 H        -2.3188735318       -4.4433552503       -7.7960930054
 H        -2.4342830414       -6.0481164189       -8.3836069527
 H        -0.9645920674       -5.1732688761       -8.7444571282
 H        -1.0183145004       -7.9225464477       -7.3372482929
 H         0.5548324270       -6.9041116424       -7.3733802766
 H        -0.0992309163       -7.6560844291       -5.9093165492
 Na       -2.7017567428        0.9347282422        0.5324206517
