155

 C        -0.4775200850       -2.7283111600       -1.2940889034
 C        -1.1771281128       -1.8723095705       -0.2169756981
 C        -1.9247312095       -2.6581267158        0.9508934268
 C        -1.8077458503       -1.7024699319        2.2786551739
 C        -1.0209868263       -2.2345675563        3.4241256783
 C        -3.3574446680       -2.7947032354        0.6570568929
 C        -1.3065641649       -4.1255743275        1.1152345946
 O        -1.4105286198       -0.6934545081       -0.4113782279
 O        -2.3221502035       -0.5919613754        2.2783495328
 C        -1.3704992068       -1.5192754949        4.7622446241
 C        -0.7401723300       -0.0933995893        4.7969248667
 C        -0.9365700151        0.9496647877        5.9901123926
 C        -2.4493778231        1.3573030393        5.9484348177
 C        -2.9291378934        2.2873674330        4.8128547237
 O        -0.1357140646        0.3200980495        3.7963411240
 O        -3.2504919983        0.7463303411        6.6226746365
 C        -0.4054776633        0.2811487733        7.2475791392
 C         0.0306453531        2.0976638907        5.6986859938
 C        -4.3785703347        2.0906083260        4.3018749715
 C        -4.6265496143        2.8725576156        2.9874301828
 C        -5.7516210591        3.9186897210        2.8226462251
 C        -5.7312229012        4.2816626075        1.2951116180
 C        -6.4793579641        3.3332239659        0.2782111010
 C        -7.1464626393        3.3389815559        3.2563124321
 C        -5.4352904745        5.3473870514        3.4552207299
 O        -3.8911190469        2.7120997950        1.9958175676
 O        -5.3912324723        5.3886362400        0.8491979868
 C        -5.8840890476        3.5877977638       -1.0838488593
 C        -4.4330628689        3.0283870949       -1.1249283056
 C        -3.1996597966        3.9135990659       -1.4835244740
 C        -2.1485755893        4.1515146454       -0.2936095677
 C        -1.3972753998        5.5107594914       -0.2643791638
 O        -4.2751877587        1.8373665798       -0.8733503134
 O        -1.8480410610        3.2347309582        0.4598936797
 C        -2.4323550133        2.9451353103       -2.4471618829
 C        -3.5617379022        5.1657815851       -2.4276380943
 C        -0.1060876946        5.3660342711        0.5187585641
 C         1.2155240445        5.0873051287       -0.2706203410
 C         2.5009214103        4.6515133973        0.5792319746
 C         1.9889155104        3.3418916292        1.2685976331
 C         1.6638358430        2.1321850421        0.4011635262
 C         3.6874327890        4.2637962955       -0.3799988348
 C         2.8542093127        5.6332026334        1.7050036111
 O         1.1513816728        4.9315650833       -1.4705833733
 O         1.7689672735        3.3208813927        2.4851203383
 C         1.5013223398        0.8908047614        1.3186993218
 C         2.1783569368       -0.4318970933        0.9679417117
 C         3.7916317174       -0.4933129954        1.1909824760
 C         4.3527520973       -1.3264836471       -0.0372976109
 C         4.6742712547       -0.6215171060       -1.4204032422
 O         1.5103627855       -1.4452398612        0.8801301572
 O         4.2551308046       -2.5220346798       -0.0105796255
 C         4.4664849835        0.8146827720        1.4307865562
 C         3.9039320783       -1.2837423701        2.4224659892
 C         5.1084317260       -1.7549140932       -2.4048556385
 C         4.1456063112       -2.0188067847       -3.5992502773
 C         4.4404939940       -3.3596367365       -4.4135886515
 C         3.1723514782       -4.1777443065       -3.9874811823
 C         1.7761723890       -3.9893544075       -4.5567223359
 C         4.2520742579       -3.0302716803       -5.8817478403
 C         5.7598870863       -4.0642552270       -4.0914539493
 O         3.3065079450       -1.2037098710       -4.0307085759
 O         3.2389377074       -4.8587516659       -2.9456335300
 C         1.1987791607       -5.0752093083       -5.4270997696
 C        -0.3002109869       -4.7490738774       -5.8875238118
 C        -1.1435635367       -5.8551866769       -6.6290804952
 C        -2.3724442277       -6.1997014098       -5.6681504718
 C        -3.3540172956       -5.0200800484       -5.4486778141
 O        -0.7326855482       -3.6152564598       -5.6888546181
 O        -2.5417096926       -7.2548815281       -5.0594321782
 C        -1.5785769257       -5.4162534697       -7.9766570766
 C        -0.3318104513       -7.1782541029       -6.7278549142
 H        -1.2392143465       -3.3095294518       -1.8131272014
 H         0.0938818010       -2.2853582498       -2.1074597280
 H         0.3039841725       -3.3229780373       -0.7597684790
 H        -1.0199105102       -3.3462691570        3.5579713260
 H        -0.0728280328       -1.9226398623        3.2060348316
 H        -3.8005575273       -1.8496183464        0.6095155670
 H        -3.7736355015       -3.3849834686        1.5298095009
 H        -3.5950273220       -3.4391566665       -0.1935096982
 H        -0.1920307075       -4.0665434818        1.2562423779
 H        -1.7242986528       -4.6525260254        1.9720945321
 H        -1.5267016001       -4.7696076135        0.2606721835
 H        -2.4815402186       -1.3038561871        4.8843454792
 H        -0.9255092727       -2.1901873191        5.5230143755
 H        -2.8131763600        3.2893299323        5.1020318576
 H        -2.3672627510        2.1410704191        3.8783721390
 H         0.0727090374        1.0164318942        7.9250518699
 H         0.2586899796       -0.5049708102        6.9026929454
 H        -1.2349347050        0.0871677041        7.9323406540
 H        -0.1671093078        2.8702661352        6.4196142999
 H         1.0326346404        1.7678784743        5.7974119592
 H        -0.1026909099        2.3823531131        4.6204945314
 H        -5.0957467141        2.2449210832        5.1507754648
 H        -4.4655657736        1.0197854316        4.1567946591
 H        -6.5145135468        2.2327180743        0.4082519202
 H        -7.5231399204        3.5685543792        0.2176129253
 H        -7.4294394529        2.3860387050        2.8956660396
 H        -7.7817283879        4.0215132291        2.7948942112
 H        -7.3022740493        3.3438453716        4.3721460278
 H        -4.3311836738        5.5598650200        3.1882771344
 H        -6.1248056598        6.0051842373        2.9774446008
 H        -5.4462511289        5.3032135383        4.5900528029
 H        -6.3238704686        3.0269546524       -1.8718255886
 H        -5.9430648945        4.6489948576       -1.2647281035
 H        -1.0375509480        5.8209244797       -1.2528680085
 H        -2.0665185641        6.2751116683        0.1082931822
 H        -3.1085191743        2.5187883821       -3.1652533828
 H        -1.9111149672        2.2585841698       -1.8533356337
 H        -1.6650724822        3.4747348830       -3.0483335490
 H        -2.6153527876        5.5989314008       -2.9469636839
 H        -4.2680356641        4.8211876346       -3.1567844337
 H        -3.9979809774        6.0276603898       -1.9269364523
 H        -0.1759164193        4.4447337820        1.1381899068
 H        -0.0383952911        6.2597673283        1.1886890340
 H         0.6577317551        2.2190534697        0.0012674694
 H         2.3321381083        2.1208461139       -0.4583678127
 H         3.3671645130        3.9271189382       -1.3527552403
 H         4.1837161662        3.4810736112        0.1298746892
 H         4.4446305163        5.0103629141       -0.5429093363
 H         1.8960217837        5.8620384195        2.2751482813
 H         3.6707357513        5.1324037046        2.2744547681
 H         3.3032334849        6.6334792935        1.3899679834
 H         1.8220674569        1.1817946094        2.3298576750
 H         0.4317782007        0.7154358426        1.4407102399
 H         3.7702283116       -0.0988532616       -1.7534350591
 H         5.4116037293        0.1034424666       -1.2387968439
 H         4.0114617573        1.2220272576        2.3661694146
 H         4.5132056510        1.5160117095        0.6022489750
 H         5.5227802951        0.6350532042        1.7954420429
 H         3.3748971129       -2.3160224805        2.3442379354
 H         4.9186858365       -1.4543163781        2.8362104243
 H         3.3429694239       -0.7364925607        3.2099602434
 H         5.1434175184       -2.5957784075       -1.7505291675
 H         6.0782630981       -1.4846749431       -2.8580069017
 H         1.0343788552       -3.8169874040       -3.7448144612
 H         1.8171584981       -3.1191925734       -5.1555444709
 H         3.6206596339       -3.7364287157       -6.4546903325
 H         5.2130908678       -3.2202670225       -6.4167891577
 H         3.7990577016       -2.0896739724       -6.0377391352
 H         6.0566259279       -4.7450485540       -4.8482479893
 H         6.5852111602       -3.3963414851       -3.7886489682
 H         5.5856315362       -4.5198645268       -3.1525738876
 H         1.7573474392       -4.9999435885       -6.3564910977
 H         1.3450168811       -6.1060532412       -4.9917281683
 H        -3.5122573447       -4.3771248405       -6.3284546242
 H        -4.3831261398       -5.3707738520       -5.2742775462
 H        -2.9794888720       -4.4448758600       -4.6536517199
 H        -2.0384944792       -4.3943516873       -7.9599300682
 H        -2.2889580946       -6.0375896813       -8.5851339485
 H        -0.7105872776       -5.3381369728       -8.6033530165
 H        -0.8026451110       -7.7532752764       -7.5077114831
 H         0.7146856277       -6.9461038535       -6.8970155209
 H        -0.3874105754       -7.8794658015       -5.9023615509
 Na       -2.8381135860        0.9395778404        0.7339293052
