155

 C        -0.4702856773       -2.3998988363       -1.4048505624
 C        -1.2603399245       -1.6891287697       -0.2639151709
 C        -1.6900843657       -2.5250012532        0.9451609836
 C        -1.7445561958       -1.6858394270        2.2847625777
 C        -1.3309228711       -2.3506386269        3.5785826912
 C        -3.2198095795       -2.9348068979        0.4668647335
 C        -0.9004993332       -3.8225273278        1.0901816645
 O        -1.6850461115       -0.5674348729       -0.4941773934
 O        -2.3239355567       -0.5987538127        2.3691577435
 C        -1.3817442621       -1.4611974378        4.8609344186
 C        -0.6926183827       -0.1100579985        4.7358785315
 C        -0.9531967214        0.8790970366        5.8842599791
 C        -2.5376032595        1.3315716791        5.6600655622
 C        -2.7714394763        2.2824298048        4.5759321979
 O         0.1448351388        0.1077030541        3.8637271664
 O        -3.4443514078        0.8283731582        6.2707526483
 C        -0.7444305183        0.1218631666        7.2652379516
 C        -0.0981678963        2.2033362527        5.7945082146
 C        -4.3040665150        2.3149448161        4.3724538723
 C        -4.6869734018        2.7179922743        2.9818724482
 C        -5.9413845929        3.7185843378        2.7232429263
 C        -5.7639331520        4.2555354597        1.2433225368
 C        -6.5255604749        3.4283577876        0.1364530278
 C        -7.2644422694        2.9648852296        2.9498970890
 C        -5.7663001423        5.0311989912        3.5662168503
 O        -4.0760764631        2.2305668510        2.0257752151
 O        -4.8849558688        5.0840376621        1.0374495582
 C        -5.7853409025        3.6518601598       -1.1355299239
 C        -4.4217022442        2.9344516550       -1.0882736476
 C        -3.1721228128        3.7048838908       -1.7486918009
 C        -2.1244304891        4.0433069962       -0.6421414282
 C        -1.5310586015        5.4318924058       -0.5924653769
 O        -4.2595402317        1.8391426065       -0.6190396273
 O        -1.6543991356        3.1253193868        0.0481143117
 C        -2.4909007713        2.7525511540       -2.7409919989
 C        -3.4983863492        4.9853155767       -2.5866105838
 C        -0.4257989029        5.5837044048        0.4528413380
 C         0.8989301405        5.2030765367       -0.1310768597
 C         2.1053975143        4.9280140355        0.7057167274
 C         1.8554366289        3.5678462605        1.4101760146
 C         2.1560813142        2.2936000383        0.6474614699
 C         3.3364778659        4.9551807850       -0.1763467619
 C         2.2702474282        6.0856121234        1.7195302682
 O         1.0697956617        5.3485370933       -1.3667858954
 O         1.5326641217        3.5644480647        2.5901329048
 C         1.6151107154        0.9841538300        1.3256177069
 C         2.0455106789       -0.4696565687        1.0925276819
 C         3.4492341785       -0.9982437405        1.3053560632
 C         4.0855147692       -1.7495902655        0.0768156297
 C         4.1849726813       -0.8746993394       -1.2106490037
 O         1.2511212759       -1.3505114011        0.7484264487
 O         4.4490811730       -2.9071109119        0.0616779332
 C         4.3664941647        0.2229877255        1.8373687095
 C         3.3814764346       -1.9549152257        2.5668926547
 C         5.1633941722       -1.6354356380       -2.1695754318
 C         4.3752460337       -1.8694176157       -3.4900039624
 C         4.5387025568       -3.1664018593       -4.3405327032
 C         3.3048346427       -4.1343718386       -3.9505461874
 C         1.9953716014       -3.7538475729       -4.6556925631
 C         4.5335183612       -2.8519892008       -5.8138043224
 C         5.8268856253       -3.9244481467       -3.9410549124
 O         3.6134181153       -1.0567937479       -3.9286874861
 O         3.4589941147       -5.1492033410       -3.2310405076
 C         1.4690995593       -4.8770501553       -5.5249624125
 C        -0.0396831999       -4.7672061258       -5.7330625772
 C        -0.8895157324       -5.9145009923       -6.4355913773
 C        -2.3108896079       -6.0457506275       -5.6900881697
 C        -3.1643855212       -4.7037737101       -5.4340470325
 O        -0.6000050952       -3.7190701671       -5.4463423462
 O        -2.7381231119       -7.1025940543       -5.3480753917
 C        -1.2234048575       -5.3404814845       -7.9765956822
 C        -0.2431323057       -7.3086997308       -6.5918190537
 H        -1.0109557606       -3.1643146501       -1.9605043166
 H        -0.1885664891       -1.7654896679       -2.2079733300
 H         0.5139627696       -2.8392758340       -0.9186456127
 H        -1.9568430983       -3.2831656852        3.7298969652
 H        -0.3433573574       -2.6244070502        3.4192390231
 H        -3.9734996750       -2.1025135349        0.3728265295
 H        -3.6339434727       -3.5769754549        1.2687709049
 H        -3.0704413446       -3.4886860692       -0.4677542392
 H         0.0889351312       -3.5608087211        1.3083803419
 H        -1.3596839310       -4.4048782075        1.9211703558
 H        -0.8634920683       -4.4000511795        0.1912158126
 H        -2.4604004377       -1.2320794781        5.0042889272
 H        -0.8287061021       -2.0151072897        5.6514649958
 H        -2.5503721335        3.3049542936        4.8398352350
 H        -2.2562758824        2.0628047926        3.6270246556
 H        -1.3869529029        0.5018094932        8.0660164508
 H         0.3022975953        0.3969447366        7.5442186030
 H        -0.8545506828       -1.0078490025        7.3527021955
 H        -0.3833350032        2.9366248087        6.6044695770
 H         0.9808225635        1.8717869515        5.8392551842
 H        -0.3547403409        2.7054576842        4.7868446935
 H        -4.8495545395        2.8245368937        5.1889788604
 H        -4.5730713796        1.3095954004        4.4765489053
 H        -6.4558996740        2.3416247018        0.3324226557
 H        -7.5865599218        3.5832882269       -0.0301843175
 H        -7.4057886383        2.0114162766        2.5209560519
 H        -8.0669753140        3.5786490298        2.5696329237
 H        -7.3495501699        2.9262229095        3.9765360624
 H        -4.8360552159        5.4361062393        3.0870074466
 H        -6.6091321805        5.6902404085        3.5438698089
 H        -5.4898922135        4.6922745607        4.5723489301
 H        -6.3340165022        3.2521832706       -2.0091459972
 H        -5.5902672273        4.6520677269       -1.2396133715
 H        -1.0409840502        5.5011220377       -1.6161442098
 H        -2.2927685900        6.2158922290       -0.4049021304
 H        -3.0359866925        2.9051926006       -3.6756373155
 H        -2.4613707881        1.7113438382       -2.4663630415
 H        -1.4602784301        3.0864094827       -2.9262864305
 H        -2.5932053081        5.2586346809       -3.1570383718
 H        -4.2067163316        4.7575831128       -3.3641117076
 H        -4.0428657850        5.7396120492       -2.0298781696
 H        -0.7923454224        5.0439100113        1.3235593838
 H        -0.3090762104        6.6316600393        0.7969463673
 H         1.7680651010        2.4103423479       -0.3458390232
 H         3.2497138160        2.2432165854        0.7157364255
 H         3.3314896458        4.0420223759       -0.8474751091
 H         4.3440343040        4.9149676842        0.3392971708
 H         3.2839139034        5.8133423370       -0.8117123496
 H         1.4907310678        6.0212064339        2.4836873471
 H         3.1771977285        6.1431569351        2.3515086971
 H         2.2413472124        7.0664701673        1.1021465824
 H         1.5861643142        1.1945771853        2.4102682923
 H         0.5176054332        0.9588218324        1.2146775999
 H         3.2514229260       -0.8743752101       -1.7126395668
 H         4.5056268195        0.0576767909       -0.9912249096
 H         3.9304399278        0.7603272001        2.6413031560
 H         4.5841809755        0.8960879276        1.1207574634
 H         5.2606641634       -0.2180571727        2.2190089747
 H         2.5623992530       -2.6408750568        2.5030160848
 H         4.2892882190       -2.5169333356        2.6402397583
 H         3.2646902911       -1.4531035994        3.4813449696
 H         5.3640924616       -2.5226830634       -1.6652708518
 H         6.0665006227       -1.0610668782       -2.3132087626
 H         1.3202824251       -3.7074347815       -3.8205503228
 H         1.9998256788       -2.6950151686       -5.0545683851
 H         5.0454409158       -3.5943324974       -6.4298081725
 H         5.0710744464       -1.9050920772       -5.9819454251
 H         3.5817757873       -2.6233273314       -6.2139751083
 H         5.6758959320       -4.9599439760       -4.2568548376
 H         6.7521354158       -3.5101371322       -4.4267013807
 H         6.0717220410       -3.8811465097       -2.8483232472
 H         1.9610566335       -4.9164092910       -6.4431320020
 H         1.7267340951       -5.8367476578       -5.0013338537
 H        -3.3173746238       -4.1486169789       -6.3848032483
 H        -4.1249342867       -5.0077202591       -5.0616719468
 H        -2.6773668266       -4.0500801859       -4.7848206234
 H        -1.6879457931       -4.3193410086       -8.0331187517
 H        -1.8374180006       -6.0984237204       -8.6034776488
 H        -0.2765837734       -5.2055238614       -8.5309748654
 H        -1.1501071596       -7.9712740324       -6.3533222013
 H         0.1846220995       -7.5108447026       -7.5707164870
 H         0.5728696973       -7.4660472787       -5.8304561743
 Na       -2.3146122750        1.0660909160        0.7245120347
