155

 C        -0.2966860718       -1.9987191756       -1.7779520010
 C        -1.2387496432       -1.4303571583       -0.8275867669
 C        -1.6554519535       -2.1961313378        0.5427713648
 C        -1.3558097437       -1.4060703931        1.9812437055
 C        -1.2963926931       -2.2323365241        3.2282667023
 C        -3.1380323471       -2.3626861115        0.4855534030
 C        -0.8953851793       -3.5922087690        0.5791224489
 O        -1.7296608612       -0.3407829577       -0.9557608092
 O        -1.2623847680       -0.2168067644        1.9812701935
 C        -1.8190695625       -1.5410142478        4.5263343138
 C        -0.6839163773       -0.5813070986        5.0821730803
 C        -1.1166743377        0.6396328842        6.0054575798
 C        -2.5322712030        1.1531317338        5.5820812862
 C        -2.7877432712        1.9825284925        4.1968433138
 O         0.4885606481       -0.7637299087        4.8219333709
 O        -3.5300730016        0.8851621977        6.1771407504
 C        -1.2297032255        0.0931500919        7.4122408176
 C         0.0195198885        1.6774918073        5.8933750793
 C        -4.2431414886        2.3988911387        4.1046941800
 C        -4.8326848868        2.3661052533        2.6693838898
 C        -6.0118724865        3.2956350664        2.4105156832
 C        -5.5083312334        4.1013278766        1.1133153754
 C        -6.3338241707        3.7347568751       -0.2055484436
 C        -7.3891814661        2.5985117537        2.3858118068
 C        -6.2039898049        4.4258244477        3.5988683179
 O        -4.4093447249        1.5930246667        1.8063234236
 O        -4.7805415273        5.0558413040        1.2192952266
 C        -5.6825413576        3.7698133188       -1.6152899479
 C        -4.4784167725        2.7014477895       -1.6836022472
 C        -3.0716245625        3.2804398405       -2.2178560435
 C        -2.4723094503        3.8611047101       -0.9250214519
 C        -2.0735827017        5.4360762394       -0.8985207623
 O        -4.5001050972        1.6210579600       -1.0766280177
 O        -2.0993690313        3.2311178105        0.0482941483
 C        -2.0316829534        2.2045749839       -2.6062547973
 C        -3.3215911166        4.2074622577       -3.4777366862
 C        -0.9309096497        5.8127514392        0.0301139550
 C         0.4090124137        5.1500447348       -0.2979026315
 C         1.4784148956        5.1337752033        1.0028496266
 C         1.2265845226        3.9406419590        1.8311441094
 C         1.8952103740        2.6667030903        1.3397997070
 C         2.9601338715        5.1709651631        0.5362392002
 C         1.2293716370        6.3332187807        1.9327895378
 O         0.6333470508        4.6070216277       -1.3933492648
 O         0.4647906615        3.9186043713        2.8174569068
 C         2.1548101923        1.4510569649        2.2220438044
 C         2.4560257881        0.1495125457        1.4051048921
 C         3.3489106294       -1.0698528678        1.9547136439
 C         3.8391794624       -2.0177383181        0.7443037624
 C         3.9656874809       -1.6370487424       -0.6848395490
 O         1.8797833544       -0.0711129349        0.4004895179
 O         4.0118873039       -3.1491391825        1.0952329646
 C         4.5874305989       -0.7293196598        2.7943800183
 C         2.3770398321       -1.9610344339        2.7127296310
 C         4.4730217824       -2.6560656578       -1.7625558167
 C         4.3748378470       -2.0886892589       -3.1773344556
 C         4.9914827846       -2.8861304584       -4.3561721974
 C         4.0919164240       -4.1568679164       -4.6231847936
 C         2.6774451456       -3.8728163576       -5.1624142004
 C         4.9161435050       -1.9618070401       -5.6276124094
 C         6.4876890154       -3.3188351371       -4.1805594299
 O         3.7606400833       -1.0664032953       -3.4203070691
 O         4.4832072833       -5.2540978925       -4.3601463681
 C         1.6360663882       -4.8363187843       -4.7352861887
 C         0.1843618806       -4.5624674913       -5.1897847088
 C        -0.4538995008       -5.4962237300       -6.2433561578
 C        -1.9350758143       -5.6316458001       -5.7705173889
 C        -2.9554397276       -4.5484791685       -6.3516962893
 O        -0.5383136204       -3.7477270030       -4.6446727077
 O        -2.2797246800       -6.4182194942       -4.9223320271
 C        -0.1965416651       -4.7326280303       -7.5869048808
 C         0.0931174645       -6.9445243733       -6.3171413581
 H        -0.5848528896       -3.0209744355       -2.0504973951
 H        -0.3259330932       -1.2728620267       -2.5470897480
 H         0.8301948479       -2.1410257112       -1.4517982417
 H        -1.7633002038       -3.1610878379        3.0038525838
 H        -0.2732313243       -2.5357154209        3.4618215777
 H        -3.6616998605       -1.4734150360        0.1335175951
 H        -3.5325771598       -2.7810075385        1.4480043811
 H        -3.4305610155       -3.2102633613       -0.1437226701
 H         0.0940347783       -3.4500018354        0.9727521892
 H        -1.4495588186       -4.3116201309        1.1597025112
 H        -0.9335940035       -3.9955422105       -0.4207852832
 H        -2.8397481848       -0.9744593077        4.4543214254
 H        -2.1637147575       -2.2770847728        5.2592331689
 H        -2.1122572951        2.7632377541        4.1280133130
 H        -2.5309322253        1.3143939458        3.3974769669
 H        -1.8428463502        0.7901134935        8.0214769148
 H        -0.3112333066        0.0075787441        7.9654919565
 H        -1.5842477298       -0.9582223640        7.4496542168
 H        -0.1415736103        2.4397322751        6.7196403846
 H         1.0106863838        1.2829844724        6.2713224794
 H         0.1539111274        2.1946776483        4.8635394797
 H        -4.2964200919        3.3312157333        4.5465696113
 H        -4.8558130228        1.6869012529        4.7028765101
 H        -6.7794196870        2.6974500332       -0.2024250385
 H        -7.0162452599        4.5373812006       -0.1284974800
 H        -7.3867939340        1.5944193596        2.0338296111
 H        -8.1197730286        3.2276582645        1.9046896950
 H        -7.6298623573        2.5147368122        3.3723534245
 H        -5.3003480173        5.0682341943        3.7713774617
 H        -7.0056443157        4.9669731147        3.2315851204
 H        -6.5276891654        3.9097225147        4.4921810508
 H        -6.4485409729        3.5384395215       -2.2961629558
 H        -5.2796992766        4.6974004306       -2.0227560188
 H        -1.7076054240        5.9043454056       -1.7988433689
 H        -2.9248267271        6.0704875637       -0.5705492328
 H        -2.4150773115        1.5141861700       -3.3725296287
 H        -1.8281351564        1.6100779229       -1.7597555835
 H        -1.0803223542        2.6183048719       -3.0486043364
 H        -2.3425778370        4.7406202115       -3.7306176715
 H        -3.5727342510        3.4373091037       -4.1624852354
 H        -4.0298523266        5.0460405517       -3.4400410223
 H        -1.1285456816        5.7157053167        1.1405836853
 H        -0.7673047974        6.8780694303       -0.0072081913
 H         1.3697713146        2.4078697732        0.3680700266
 H         2.8355730089        2.9169346384        0.9791776406
 H         3.2754189594        4.5145077489       -0.3188368981
 H         3.5466589485        4.8961028362        1.4311909173
 H         3.3536475992        6.1409608161        0.1940702085
 H         0.2969029314        6.3532399343        2.4524612307
 H         2.0331099357        6.4186843541        2.6345988626
 H         1.1054271438        7.3693267682        1.4880913760
 H         3.0699740731        1.6554363755        2.7430082970
 H         1.2815705456        1.2530851635        2.8403424535
 H         3.0098210087       -1.2238714079       -0.8939387342
 H         4.4941287569       -0.7236047063       -0.7137729892
 H         4.3764853037       -0.2664822789        3.7068305336
 H         5.2180508707       -0.2102999895        2.2147392755
 H         5.0943073783       -1.6412936023        3.0158291887
 H         1.5333462646       -2.0501821760        2.0369523359
 H         2.7535020192       -2.9244956500        2.7414628261
 H         2.0089520551       -1.7535877436        3.6586872902
 H         3.8663007328       -3.5382929430       -1.7071343546
 H         5.3922178501       -3.0936436454       -1.5803283362
 H         2.3260974639       -2.9433301765       -4.8841454272
 H         2.7818902604       -3.9004231430       -6.1785072718
 H         5.1901996257       -2.5466572442       -6.4900905561
 H         5.7230275438       -1.2051878784       -5.5690245394
 H         3.9596585889       -1.5789969451       -5.7863503417
 H         6.7117111052       -4.3039886989       -4.6336401221
 H         7.0463925679       -2.5149481715       -4.7644686095
 H         6.7622430589       -3.3115514899       -3.1215442389
 H         1.8370507817       -5.9455333912       -4.9386384635
 H         1.7051692223       -4.7646068159       -3.6269819648
 H        -3.4687463169       -4.2222284810       -5.4715180191
 H        -2.4719346330       -3.7130649978       -6.8658692828
 H        -3.5651948838       -5.0394602768       -7.0495686477
 H        -0.3364749435       -3.6263618894       -7.3289326498
 H        -0.9604745630       -5.0016951904       -8.3907325290
 H         0.8211418575       -4.9557046556       -7.8967618181
 H        -0.3248222275       -7.5297750854       -5.4959130270
 H        -0.1751240226       -7.2268809984       -7.3545735129
 H         1.2204460830       -7.1188801517       -6.2335985156
 Na       -2.8384980758        0.8939922957        0.4462233627
