155

 C         0.2329521638       -2.0340160445       -1.2132805369
 C        -1.1366165229       -1.5834929610       -0.6588790248
 C        -1.7701226404       -2.3708405674        0.4680081795
 C        -1.5898213315       -1.5226596774        1.7730583231
 C        -1.4032219415       -2.2239445188        3.1088755165
 C        -3.3854202833       -2.4597677142        0.2137819899
 C        -1.2355447124       -3.8338879406        0.5552299954
 O        -1.7256202751       -0.6417723894       -1.1950725651
 O        -1.6748992263       -0.3068809602        1.6641835976
 C        -1.8309125291       -1.5931653762        4.4614890460
 C        -0.7882334427       -0.5671765529        4.9168367946
 C        -1.4179391585        0.5910798103        5.8341276347
 C        -2.7878655339        1.2017549959        5.4132356943
 C        -2.8383930181        1.7719838920        3.9879596787
 O         0.4020789714       -0.7675617626        4.7957526432
 O        -3.7897879852        1.1743933439        6.0885723607
 C        -1.5246229533       -0.0654398432        7.2967511257
 C        -0.2922549997        1.6787417467        5.9401881891
 C        -3.9243786533        2.8902767887        3.7956386821
 C        -4.8421401580        2.4162200765        2.6317750197
 C        -6.1132028862        3.2227196441        2.2539471561
 C        -5.7205368974        3.8791542894        0.8779899079
 C        -6.5352097850        3.4857803483       -0.4154147619
 C        -7.3028946565        2.1245788041        2.5141508704
 C        -6.4140417334        4.4740658028        3.0989847406
 O        -4.5423851139        1.4384369806        1.9772492790
 O        -4.8505993691        4.7192615384        0.8251821499
 C        -5.7731884463        3.7967617812       -1.7688268900
 C        -4.4732071231        2.8581318890       -1.6106859960
 C        -3.0436298000        3.3110532958       -2.1874926676
 C        -2.3840750425        3.9645670577       -0.9832951274
 C        -1.9353716095        5.5649040886       -1.1555588323
 O        -4.6117138741        1.7276659404       -1.1438349428
 O        -2.3446624902        3.4541065779        0.0946059598
 C        -2.2344696108        2.0821087896       -2.6675642907
 C        -3.2422655761        4.3621889252       -3.3656043071
 C        -1.0320031262        5.9716468008        0.0728244279
 C         0.2151932861        5.0480094961        0.1135436146
 C         1.2693463998        5.1630676668        1.2573697764
 C         1.3199124558        3.6502861618        1.8835471310
 C         1.9542291472        2.5269548927        1.0677622219
 C         2.6029430701        5.5751267551        0.6087339636
 C         1.0128353758        6.0305738408        2.4941227322
 O         0.4112278216        4.1287804642       -0.6834860139
 O         0.9787810724        3.5751829545        3.0293421221
 C         2.3157138300        1.3863355144        1.9487381775
 C         2.4285564389       -0.0653811076        1.1939880162
 C         3.4617568527       -1.0281362333        1.8867584087
 C         3.9334534533       -2.1620388616        0.7305941869
 C         4.4630157970       -1.5449730950       -0.5512518189
 O         1.7914859819       -0.4364905714        0.2263828680
 O         3.9543234229       -3.3307700274        1.0885705119
 C         4.7945637293       -0.4185031153        2.3241714829
 C         2.8604407437       -1.8965466991        2.9465372939
 C         4.4779291528       -2.5995869188       -1.5867209110
 C         4.2574215981       -1.9276642283       -3.0839963767
 C         5.1013857114       -2.6425480856       -4.2493612037
 C         4.4117027521       -3.9897743217       -4.6381057230
 C         2.8790270575       -3.8033483122       -5.1430954018
 C         5.1466385572       -1.6496300095       -5.4041112766
 C         6.5157157496       -3.0083841429       -3.8519252821
 O         3.5334236838       -1.0085862842       -3.2423672306
 O         4.8467623290       -5.0870618073       -4.4112296630
 C         1.9498007680       -4.9828009695       -4.7631660335
 C         0.4651458414       -4.6218983421       -4.8653870865
 C        -0.3018011654       -5.3853726936       -5.9270700718
 C        -1.9315537046       -5.4116993755       -5.8095241377
 C        -2.7933207632       -4.5085176069       -6.7082594218
 O        -0.1005520833       -3.7569153587       -4.1976339968
 O        -2.4165602749       -6.1009163141       -4.9338909529
 C         0.0844411165       -4.4828022275       -7.1699687490
 C         0.0881390200       -6.8373432058       -6.1704783181
 H        -0.0607716705       -2.9179818461       -1.7889554070
 H         0.8531368769       -1.3517910405       -1.8332393755
 H         1.0336173818       -2.4920821214       -0.5359169582
 H        -1.8258358380       -3.2251297168        3.0252607795
 H        -0.3096936300       -2.4258826248        3.1968207376
 H        -3.9561670868       -1.4573555706        0.3301121775
 H        -3.7664103907       -3.1479276535        0.9685342160
 H        -3.6233146842       -2.9021515251       -0.7112016459
 H        -0.2546802962       -3.7837019398        0.8195221629
 H        -1.8053507255       -4.4449793444        1.3014504845
 H        -1.2700757510       -4.2693778880       -0.4357351398
 H        -2.9627555467       -1.2946478082        4.4138155060
 H        -1.9682883928       -2.3748646323        5.2337228832
 H        -1.8315393260        2.0734067242        3.8507381805
 H        -2.9970483710        0.9241257265        3.2631685635
 H        -1.3260851170        0.6139388124        8.0670208758
 H        -0.7792049007       -0.8182963516        7.3487192770
 H        -2.5038402696       -0.4194547119        7.6915273594
 H        -0.5325581849        2.6116116930        6.4555283717
 H         0.6618040833        1.2875037634        6.3675138644
 H        -0.0174059753        1.9717443585        4.9603333910
 H        -3.3836367464        3.7323380977        3.4829960898
 H        -4.5534344232        3.1743044321        4.6503193406
 H        -6.6624332937        2.3228012840       -0.3350753915
 H        -7.4625460310        3.9918372953       -0.4127175111
 H        -7.4455841679        1.2953643248        1.8158625111
 H        -8.2677809777        2.6401483437        2.6134407436
 H        -7.0440453935        1.7793196385        3.4189216740
 H        -5.4797718792        5.0012364247        3.0116570000
 H        -7.1888748672        4.9703858857        2.5849365990
 H        -6.6039612119        4.3219519896        4.1291870681
 H        -6.2874890535        3.3431204118       -2.5853381933
 H        -5.7196023285        4.8355600104       -2.0740596094
 H        -1.3755111720        5.8226158868       -2.0814049608
 H        -2.7661490418        6.3293275070       -1.0669446854
 H        -2.7732856331        1.1631297613       -2.4877770205
 H        -1.2547573539        2.0254166921       -2.2479525778
 H        -2.0645435414        2.0378177252       -3.7641126056
 H        -2.2937835620        4.3491665232       -3.9502534390
 H        -3.9645406242        3.8920368874       -3.9866978082
 H        -3.7038855931        5.3173171172       -3.1006174060
 H        -1.6447061008        5.8682415965        1.0044569328
 H        -0.6775797522        6.9804764064        0.0337442129
 H         1.3342517392        2.2291184543        0.1787850612
 H         2.7382609701        2.8991581536        0.5075764742
 H         2.9746432755        4.8028938386       -0.0976136094
 H         3.3967296740        5.7764464013        1.3480727227
 H         2.5622723730        6.5239843516        0.1211837118
 H         0.1198975699        5.8321010045        2.9757614775
 H         1.7415588070        5.9793076964        3.2194565781
 H         0.8691751109        7.0974146509        2.2876571766
 H         3.2933493640        1.6580755794        2.4018695241
 H         1.4358017963        1.2387467499        2.6108096114
 H         3.8642786611       -0.7195907465       -0.8377410835
 H         5.4001421991       -1.0801961269       -0.4402255845
 H         4.5844419749        0.1941683453        3.2509420568
 H         5.1778417224        0.2850068348        1.5843883340
 H         5.5257254660       -1.2060340364        2.6446432104
 H         1.9718884543       -2.3955413088        2.5965201503
 H         3.5379562746       -2.6614780064        3.3158941518
 H         2.5303848145       -1.3401193078        3.8470094138
 H         3.6982453781       -3.3765358066       -1.5355896741
 H         5.3638230477       -3.1740566339       -1.5204574014
 H         2.5053228652       -2.9469546692       -4.7212811457
 H         2.8536197486       -3.6084685107       -6.1796509694
 H         5.6545067054       -2.0705385718       -6.2880856289
 H         5.7220409127       -0.7164204109       -5.1189684476
 H         4.1160157314       -1.4545873483       -5.5819407984
 H         6.4789093069       -3.4383137723       -2.8909054369
 H         6.8836933018       -3.7929898182       -4.5355453037
 H         7.1892693113       -2.2021961388       -4.0262932651
 H         2.3833982575       -5.8515946070       -5.2805010714
 H         2.1304073452       -5.2226728919       -3.6578676507
 H        -3.7843842325       -5.0473432112       -6.7776319799
 H        -2.9521811662       -3.6091412873       -6.0559213385
 H        -2.3945269146       -4.3527552959       -7.6747129975
 H        -0.2924785055       -3.4689983901       -7.0455221315
 H        -0.2433784392       -5.0228196812       -8.0794746570
 H         1.1196369996       -4.4487431881       -7.1342060505
 H         0.4917595575       -7.3330399257       -5.2482442914
 H        -0.8044734638       -7.3283153365       -6.4624421019
 H         0.6260335348       -7.0238725595       -7.0758349029
 Na       -2.7480290790        1.3298554690        0.3527600686
