155

 C         0.4445719222       -1.9974453870       -1.0031123032
 C        -0.9548479290       -1.7210697638       -0.3824602135
 C        -1.8248061567       -3.0681310680       -0.0338836218
 C        -2.8480988900       -2.6501884241        1.1046318877
 C        -2.3659978010       -3.0065508241        2.4724397494
 C        -2.6712034480       -3.3705061845       -1.2905974552
 C        -0.9037103982       -4.2417661702        0.2212715362
 O        -1.3344441332       -0.6077667199       -0.3333799168
 O        -3.8905287132       -2.0938679335        0.9576973226
 C        -3.1367376593       -2.2960805778        3.5700639165
 C        -2.8821525670       -0.8906882804        3.6639006465
 C        -3.1453093095       -0.1128421878        5.0011118078
 C        -4.0907626925        1.1051918525        4.7101748894
 C        -3.5346810959        2.2857209317        4.0309689680
 O        -2.5085367854       -0.3251518369        2.7000378777
 O        -5.2183476118        1.0092373306        5.1188564024
 C        -3.6789298293       -0.9633876970        6.2557572908
 C        -1.7017627687        0.4508106643        5.3889247910
 C        -4.5973359095        3.2643711887        3.4302551464
 C        -5.3243629935        2.6824111941        2.1792171362
 C        -6.5996417036        3.3953840784        1.6386538440
 C        -6.4508527398        3.7831727901        0.0985073467
 C        -6.6565272032        2.6890889269       -0.9499394417
 C        -7.8898631063        2.5076887879        1.7041990074
 C        -7.0036864302        4.7192682591        2.3755693969
 O        -4.9075011749        1.7514396956        1.4999184684
 O        -6.3277307641        4.9216456569       -0.3082339625
 C        -5.7166154177        2.8055096453       -2.1316159272
 C        -4.2805495599        2.2861991138       -1.6429515973
 C        -3.0422475090        3.1634151330       -1.9495732371
 C        -2.3738065210        3.4675532219       -0.5236903350
 C        -2.0719447556        4.9306792512       -0.0786445186
 O        -4.1530186454        1.1462962895       -1.2356943794
 O        -2.0964255802        2.4587525684        0.1735290940
 C        -1.9687177563        2.3237548201       -2.6435799408
 C        -3.1866438859        4.4725205288       -2.8181925270
 C        -1.1022355677        5.0927778716        1.1769630700
 C         0.3804858576        4.9501994704        0.8878763913
 C         1.4053209186        4.7308271887        2.0841536664
 C         0.9771160885        3.2400478950        2.6149646312
 C         1.3781842447        2.0959844686        1.7886861001
 C         2.8459096911        4.9433873497        1.4877742157
 C         1.0749641577        5.8726967911        3.1013077714
 O         0.8910503268        5.4089796721       -0.1383521882
 O         0.0871422962        3.0983209384        3.4896993016
 C         2.6808989800        1.5048762269        2.4001640912
 C         3.3584146120        0.5844523204        1.3698835288
 C         4.4509021143       -0.4549335695        1.8035458310
 C         4.8582788435       -1.2131144180        0.5634298346
 C         6.0045472422       -0.6469951715       -0.2806567333
 O         3.2276161051        0.7903894976        0.1759046723
 O         4.1610274257       -2.1637040562        0.2239623108
 C         5.5707157444        0.3146122108        2.6499673778
 C         3.7015479381       -1.4673847825        2.8144445080
 C         6.4726636265       -1.6456316955       -1.4233450414
 C         5.8489701980       -1.2585636945       -2.8541553067
 C         5.8619680929       -2.2153367862       -4.0366772701
 C         4.9309557180       -3.5214193318       -3.9804783043
 C         3.4162375453       -3.3996418408       -4.4057265049
 C         5.4449267156       -1.4376808998       -5.3316415055
 C         7.3287257221       -2.6945549581       -4.2530052133
 O         5.5703840491       -0.0700922350       -2.9877988346
 O         5.4120203700       -4.5939682577       -3.6441926792
 C         2.7328375257       -4.7251209680       -4.2887269734
 C         1.2460009823       -4.6065652137       -4.1359335464
 C         0.2158484685       -5.1623667343       -5.2062705607
 C        -0.9577091956       -4.1507276228       -5.4654786497
 C        -0.5706608911       -2.6985917620       -5.5556528502
 O         0.8183642815       -4.0954598316       -3.1056964415
 O        -2.1050166675       -4.4633108475       -5.5927882945
 C         0.8144703712       -5.6506654723       -6.5851330640
 C        -0.2313315320       -6.3952231637       -4.4263236608
 H         0.5179161958       -2.3576883899       -2.0940566522
 H         1.1110136122       -1.2224613259       -0.8089524246
 H         0.9005195715       -2.8131039848       -0.5627988241
 H        -2.4644873143       -4.0430671637        2.6273920280
 H        -1.2540497792       -2.8299278537        2.4471237731
 H        -3.1860601726       -2.5353437511       -1.5114157242
 H        -3.4760103684       -4.0480013770       -1.0030724616
 H        -2.0446655833       -3.6517419227       -2.1665431094
 H        -0.2995407139       -4.1582066046        1.1451861044
 H        -1.5111436396       -5.1937421399        0.1934187793
 H        -0.2987945206       -4.3481133594       -0.6357963288
 H        -4.2035518857       -2.5561186202        3.2763378821
 H        -3.1479239212       -2.8132317006        4.4978522429
 H        -3.0991187789        2.9147967702        4.8241769979
 H        -2.6579936732        2.1022026904        3.2915510387
 H        -3.3928283459       -0.3926978729        7.1445426563
 H        -3.0645710818       -1.8501100635        6.5204522389
 H        -4.7638783453       -0.7942558404        6.1552546639
 H        -1.9201758141        1.3201824252        6.0752246906
 H        -1.1332222807       -0.3769467930        5.8503902489
 H        -1.1465797365        0.7706261576        4.4019330343
 H        -4.1402806854        4.1411047465        2.9499822252
 H        -5.3515526513        3.6042017244        4.1671490137
 H        -6.4189908467        1.6572787475       -0.4075136199
 H        -7.6558321138        2.6554459188       -1.2772164114
 H        -7.7159728979        1.3901810477        1.3993960351
 H        -8.7310459548        3.0458068968        1.1108598605
 H        -8.2261023184        2.5008451985        2.7073011279
 H        -6.2944866535        5.4609605861        2.5220194648
 H        -7.8529425704        5.2641935247        1.8644141389
 H        -7.5245877473        4.6028174505        3.3238543646
 H        -6.0957851221        2.1236065225       -2.9050750615
 H        -5.7040708567        3.8412731511       -2.5785892340
 H        -1.7607510526        5.4387642501       -0.9523301389
 H        -3.0654558428        5.3865586091        0.1665583322
 H        -1.8833819600        1.3529322786       -2.1700079529
 H        -1.0345892530        2.8605734163       -2.4571628348
 H        -2.1293827890        2.1907441871       -3.7341519310
 H        -2.2053027967        4.9503473036       -2.9144224620
 H        -3.5237657826        4.1772740433       -3.8222924662
 H        -3.8846614744        5.3238969268       -2.5639930869
 H        -1.4076888743        4.4665398600        2.0063452174
 H        -1.2809623443        6.0656243073        1.6433149634
 H         0.5969582168        1.3670058771        1.6308447035
 H         1.5268639289        2.3213088094        0.7506271742
 H         2.9073838441        4.1963193059        0.6381107571
 H         3.6586144525        4.8859571139        2.2785401361
 H         2.7904796674        5.8774265684        1.0108159197
 H         0.2534707527        5.4923546927        3.7371615346
 H         1.9740236156        6.1330073570        3.7030651081
 H         0.8776828203        6.7182617852        2.5410386039
 H         3.4266545394        2.2722238288        2.3478365188
 H         2.4212153167        0.9608701983        3.3550763558
 H         5.8476645354        0.2522441662       -0.8876509430
 H         6.8206426568       -0.3338433692        0.4445635687
 H         5.2522547935        0.6346477294        3.5724168951
 H         5.9347037995        1.1220786849        2.0605279265
 H         6.4208416206       -0.2584240167        2.8251496528
 H         3.3511923332       -2.2592635240        2.2249570215
 H         4.4571875469       -1.8233927648        3.5377087167
 H         2.8545743875       -1.0150765215        3.3782124882
 H         6.0845600305       -2.7434536430       -1.2947516945
 H         7.5508770304       -1.7042201941       -1.5126983703
 H         2.9776807596       -2.5464234434       -3.8056561855
 H         3.3606765357       -3.0198459572       -5.5018095716
 H         5.4455643241       -2.2026795753       -6.1062565935
 H         6.1343114127       -0.5941716978       -5.5301165933
 H         4.5291509700       -0.9075782101       -5.2694372630
 H         7.5521627828       -3.6501912153       -3.7883491185
 H         7.6026162416       -2.9146051941       -5.2863149497
 H         8.0578380371       -1.8791362302       -4.0665242844
 H         2.9305612858       -5.2181268586       -5.2493051617
 H         3.2625782850       -5.3641590700       -3.4534386893
 H        -1.4665903798       -2.2747306490       -5.0986709623
 H         0.2637322670       -2.4585924716       -4.9060927195
 H        -0.5548006077       -2.3618071010       -6.5487974702
 H         1.1191857439       -4.8490453806       -7.2940162657
 H         0.0316217562       -6.3224279568       -7.0911352637
 H         1.6538294256       -6.2827987267       -6.2864142483
 H        -0.9620336456       -6.1436587032       -3.5926370660
 H        -0.8160100731       -7.1677024711       -4.9449041684
 H         0.6191540308       -6.9550064223       -3.9901378468
 Na       -3.4425365832        0.1040717519        0.4604005855
