155

 C         0.7246559369       -2.0385847305        0.2105193769
 C        -0.5797350941       -1.3350396968       -0.1546994758
 C        -1.7210931887       -2.2466094692       -0.6831053324
 C        -2.9709039675       -1.9933362699        0.1592767251
 C        -3.0951605529       -3.0177206902        1.4401204619
 C        -1.9182733350       -1.6979825481       -2.2020561119
 C        -1.4257598932       -3.7378946912       -0.8137423852
 O        -0.7617501772       -0.1454759419        0.0378232422
 O        -3.7780290507       -1.0552415298        0.0055177282
 C        -4.1617622749       -2.5696143470        2.4187728451
 C        -3.8736286605       -1.2404350599        3.2252942845
 C        -4.6148003528       -0.9925557461        4.7092132217
 C        -5.6803028192        0.2057088730        4.5733437951
 C        -5.1314351468        1.6328242413        4.6024694599
 O        -3.0854782914       -0.3896322964        2.8668415261
 O        -6.8613517839       -0.0625644230        4.5173140035
 C        -5.3986748092       -2.1751353255        5.1987817215
 C        -3.4585510731       -0.6735168294        5.7281760638
 C        -6.0742735611        2.4572607531        3.7161102286
 C        -5.8537047019        2.1450755308        2.1611844202
 C        -7.0544590122        2.4699846689        1.1495400384
 C        -6.5592848361        3.0478259029       -0.1453323974
 C        -6.2944110237        2.1093218943       -1.3073295044
 C        -7.8528844582        1.0962705688        0.9294225764
 C        -8.0942432021        3.3362490115        1.8261389285
 O        -4.8301027308        1.6502252950        1.8348030367
 O        -6.4266857635        4.2525330901       -0.3446631938
 C        -5.3676336563        2.7229424860       -2.4226695981
 C        -3.9159927776        2.4460409399       -1.9213219142
 C        -2.7349998987        3.5075223092       -2.0878344661
 C        -2.4720837212        4.0054569350       -0.6223279707
 C        -2.3859262904        5.5077244295       -0.2317061960
 O        -3.7857792354        1.4997668389       -1.1742321972
 O        -2.1376163012        3.1499317682        0.1452510436
 C        -1.4157615814        2.7088887160       -2.5046008971
 C        -3.1952368605        4.6259044805       -3.0148292455
 C        -1.5365691470        5.6828361949        1.0738670808
 C        -0.1326862593        4.9373858522        1.1198943610
 C         0.6872023490        4.7934724297        2.4754506846
 C         1.1020346027        3.2533724145        2.6196115373
 C         2.2078923592        2.6284128061        1.7308280927
 C         1.9799331032        5.6798722529        2.3978958037
 C        -0.0620079818        5.1570907176        3.7430505005
 O         0.4600778083        4.5953197945        0.1677066891
 O         0.5740523634        2.6488927456        3.5398141732
 C         2.3997652654        1.1258257794        2.0639646435
 C         3.4824643637        0.5621482910        1.0458619453
 C         4.7424855777       -0.1870221738        1.5426264605
 C         5.4262982762       -0.7905659384        0.2448048041
 C         6.1785716616        0.1703214382       -0.6224147224
 O         3.3141407713        0.7609669689       -0.1469347396
 O         5.1151736241       -1.9484933230       -0.0735135936
 C         5.6166937336        0.8076930557        2.3298034953
 C         4.4651302106       -1.4356402233        2.5519076931
 C         7.1213566930       -0.6111409246       -1.6054383262
 C         6.4124697876       -1.1404208040       -2.9398645197
 C         6.7956672008       -2.4990885485       -3.5210613322
 C         5.7959153694       -3.6790077107       -3.1640981166
 C         4.2507954639       -3.3017760233       -3.0754059111
 C         6.5677764813       -2.4875401104       -4.9962109902
 C         8.2629401956       -2.8998063935       -3.2344170206
 O         5.6338181834       -0.3652181465       -3.5195077191
 O         6.2189574318       -4.7785078261       -3.0929360251
 C         3.3603653781       -4.0606251154       -4.0339000024
 C         1.8758607540       -4.0338559033       -3.6537020844
 C         0.8080849218       -4.9923873348       -4.4488499155
 C        -0.3051355452       -3.9163550582       -5.0030761136
 C         0.0378792336       -3.0766418452       -6.2832685974
 O         1.3791065912       -3.3085337221       -2.8437012543
 O        -1.3464528064       -3.7758545240       -4.4256669977
 C         1.3982823876       -5.8618772368       -5.5085921522
 C         0.0491750903       -5.8874166422       -3.4007955907
 H         1.5724748683       -1.5990049392       -0.3051126407
 H         1.1092335830       -1.8445957085        1.2617799691
 H         0.8184641803       -3.1130691290       -0.0219089881
 H        -3.3956100881       -4.0002779657        1.0452037234
 H        -2.1671532086       -3.2112374929        1.8492943991
 H        -2.1704912807       -0.6187689135       -2.2333854785
 H        -2.6832590871       -2.2537838151       -2.7253478076
 H        -0.9012375283       -1.7916329967       -2.6079338808
 H        -1.2398539009       -4.3014048486        0.1116547749
 H        -2.3127258911       -4.1770588046       -1.3436785549
 H        -0.6900823345       -3.8526809687       -1.5109842184
 H        -5.0633412415       -2.3060307311        1.9405919910
 H        -4.2926635608       -3.3839172355        3.1143722545
 H        -5.0252522309        2.0873731381        5.6071869999
 H        -4.1667504154        1.6863512278        4.1426953083
 H        -5.6602313134       -2.2672874935        6.2294475729
 H        -4.9242899296       -3.1245969627        5.1547814023
 H        -6.2264180382       -2.0980727669        4.5597338056
 H        -3.8647993499       -0.3698772872        6.6724073470
 H        -2.8429096453       -1.5060898440        6.0009647008
 H        -2.8513710009        0.0652369757        5.4105500072
 H        -5.8148753121        3.5150141495        3.7801900995
 H        -7.0753359378        2.3091036048        3.8813765271
 H        -5.8221338052        1.1850376252       -0.8275605747
 H        -7.2297815144        1.7707086414       -1.6848869084
 H        -7.2575364359        0.3633488064        0.5572668255
 H        -8.6954758683        1.2772441750        0.3323906723
 H        -8.1851296936        0.7274516320        1.9615696722
 H        -7.7670920741        4.3375878186        1.8411876721
 H        -9.0346796423        3.4237476892        1.1804340134
 H        -8.5238186975        2.9159147194        2.7098739778
 H        -5.5874901097        2.2199704903       -3.3648078973
 H        -5.5881163026        3.7788657319       -2.4950631303
 H        -1.9377015024        5.9859931675       -1.0493469975
 H        -3.3791319080        5.8724462194       -0.1416515577
 H        -1.3135644424        2.0445521026       -1.6377836938
 H        -0.5526540529        3.4048206252       -2.5656452166
 H        -1.5745459777        2.0562566524       -3.4013632399
 H        -2.7158354215        5.5893336319       -2.8672263580
 H        -3.2325531438        4.2572002681       -4.0334517727
 H        -4.2769495332        4.8142378509       -2.7845629911
 H        -1.9453631532        5.3328840421        2.0309074414
 H        -1.3653143838        6.7940006613        1.1729378297
 H         1.9721068111        2.7790520468        0.7053017029
 H         3.1477666432        3.1432404958        1.8232741971
 H         2.5038827193        5.5482017341        1.4557991651
 H         2.6928713566        5.4077123044        3.2194195126
 H         1.7826525066        6.7208356263        2.4975831448
 H        -1.0827342361        4.7420713100        3.8050344586
 H         0.5525040585        4.9402506931        4.6516137475
 H        -0.1409264521        6.2440971784        3.8166672472
 H         2.6863948059        0.9654972439        3.0669747076
 H         1.4570646156        0.6727540263        1.7332778353
 H         5.5516914594        0.8403094108       -1.1426261193
 H         6.7642485511        0.8357056471       -0.0306873562
 H         5.0352706639        1.0774754579        3.2478124525
 H         5.6412266533        1.7760846615        1.8388625965
 H         6.6851488632        0.4960593497        2.4280973143
 H         3.8048972598       -1.0563692161        3.2842126426
 H         3.8421862216       -2.1688938347        2.0888203609
 H         5.3192747554       -1.9197364196        2.9519950454
 H         7.6806359676       -1.4254919199       -1.1249706470
 H         7.9172319944        0.0393966798       -1.9913422706
 H         3.9472998379       -3.4258261836       -2.0305508396
 H         4.1242733524       -2.1463591571       -3.3504472696
 H         6.9428501918       -3.3500440969       -5.5348613746
 H         7.0124860963       -1.5460015781       -5.3556857022
 H         5.5647436537       -2.2767147901       -5.2483918988
 H         8.3368642056       -3.3926065125       -2.2903017459
 H         8.5151257265       -3.7676025232       -3.7696799455
 H         8.8870678151       -2.0299645684       -3.4410295852
 H         3.3499405255       -3.7291709404       -5.0628520999
 H         3.7512778240       -5.1211844051       -4.1100218015
 H         0.6325300183       -2.1883041171       -6.0858851801
 H         0.6208614081       -3.7181417647       -6.9716453086
 H        -0.9513873938       -2.8619551915       -6.7268631669
 H         1.7652692196       -5.3213047423       -6.3826599249
 H         0.6798104690       -6.5611224219       -5.9867034987
 H         2.2169307515       -6.4945217108       -5.1776486972
 H         0.8191242422       -6.2614059951       -2.6994240506
 H        -0.7633143917       -5.3322098534       -2.8967179451
 H        -0.4764333441       -6.7793014893       -3.8129348942
 Na       -2.7546406598        0.9519478348        0.9065020957
