155

 C         0.7208654988       -1.8767735086        0.4725796616
 C        -0.6038761001       -1.2685157102       -0.0430436691
 C        -1.7333412525       -2.0493023747       -0.7753399560
 C        -3.0037719153       -1.9028615117        0.3064663306
 C        -3.0083582699       -2.8948276899        1.4986899209
 C        -2.2647374884       -1.4238143818       -2.0714400319
 C        -1.3903153651       -3.4846597978       -1.0499647805
 O        -0.8242992395       -0.1033050597        0.1747158823
 O        -3.7609044700       -1.0401875958        0.0771592887
 C        -4.2344655556       -2.5437302654        2.3486632829
 C        -4.0677040815       -1.2194541597        3.1900691861
 C        -4.7618753747       -1.1457848686        4.5297426873
 C        -5.7762999899        0.0961650151        4.4203128872
 C        -5.2380388654        1.5105210487        4.4613255020
 O        -3.3019934778       -0.3282763598        2.8413199192
 O        -6.9016866293       -0.1878403771        4.0638878658
 C        -5.5174105934       -2.4388458777        5.0335440371
 C        -3.7130630807       -0.6548469586        5.6300325664
 C        -6.1379774666        2.5008820800        3.6814785934
 C        -6.0480654493        2.1966144637        2.1324165619
 C        -7.2792128874        2.2134395448        1.1964412764
 C        -6.7514961872        2.7923196937       -0.1744844728
 C        -6.4794767281        1.9666868752       -1.4108548852
 C        -7.6866215479        0.7829475702        1.3009988894
 C        -8.2817520436        3.3372802348        1.6736249651
 O        -4.9534959156        1.8302963965        1.6822414298
 O        -6.5105881765        3.9727548464       -0.1915499582
 C        -5.3685537228        2.7066378047       -2.2732289987
 C        -3.8826993724        2.4558019724       -1.9529777727
 C        -2.7196293137        3.5627478255       -1.9405378356
 C        -2.3497625653        3.9101902476       -0.4207367492
 C        -2.0217706083        5.4314767171       -0.1899238560
 O        -3.5255789199        1.3126968585       -1.7255880680
 O        -2.2111994461        3.0572380281        0.4463246369
 C        -1.5546200406        2.9686546987       -2.7227379286
 C        -3.1307097469        4.7919290456       -2.8510621866
 C        -1.4264556991        5.6236909276        1.1673123497
 C         0.0237377846        5.0345006025        1.2179310749
 C         0.7411380971        4.8409984435        2.5485909879
 C         1.1574852900        3.2490791749        2.7965642414
 C         2.2679568876        2.7539237223        1.9931141167
 C         1.9123783606        5.8960310522        2.5328317493
 C        -0.2221119487        5.2625605596        3.7490434022
 O         0.5935024700        4.7005527881        0.1479921083
 O         0.6332169870        2.6401705745        3.6881747104
 C         2.4424911996        1.2769209922        2.1981625439
 C         3.3790081967        0.6190290734        1.1109437898
 C         4.7606773885       -0.1450884434        1.5577626102
 C         5.4159922963       -0.7408393602        0.2113526740
 C         6.3139110186        0.1330754528       -0.6954021347
 O         3.1381657057        0.6551457317       -0.0498520512
 O         5.2447074415       -1.8644925469       -0.1117028113
 C         5.6983488713        0.8769636300        2.2141765180
 C         4.4308871093       -1.3057876724        2.5451820505
 C         7.1903259619       -0.6457854647       -1.6002388561
 C         6.5283848047       -1.0776820745       -2.9448704742
 C         6.7940721718       -2.5989297138       -3.5925501413
 C         5.7811498723       -3.6377617169       -3.1593143726
 C         4.3210129062       -3.2632492749       -3.1117261226
 C         6.7048232304       -2.4338488316       -5.1243425988
 C         8.1778052429       -3.0048517946       -3.0837551196
 O         5.8957778746       -0.2968936407       -3.5620345521
 O         6.0650854618       -4.8032676346       -2.8962024437
 C         3.5373748841       -4.1924624902       -4.0709323251
 C         1.9906933480       -4.1045574312       -3.7717820031
 C         0.9218898494       -4.9056127409       -4.4050856327
 C        -0.2397577399       -3.9632949901       -4.9701950582
 C         0.0139280244       -3.2292731215       -6.3188675555
 O         1.7356477785       -3.5098760914       -2.7126099494
 O        -1.3622324368       -3.9387085442       -4.4824806887
 C         1.4595492945       -5.8355462769       -5.5928746922
 C         0.3018905752       -5.8187710714       -3.2752894400
 H         1.6114295891       -1.2424025274        0.7087611600
 H         0.5636695508       -2.2220905162        1.4296364794
 H         1.0552476520       -2.6832619196       -0.1092627271
 H        -2.8851586708       -3.9183506288        1.1277913384
 H        -1.9800495412       -2.6938131795        1.9631008330
 H        -2.3260155126       -0.4005423360       -2.1351461721
 H        -3.2730869536       -1.8924326047       -2.2069017177
 H        -1.5268701819       -1.7274693450       -2.8213187629
 H        -0.9372740032       -3.8334468605       -0.1515809160
 H        -2.1234562628       -4.2290240678       -1.3316872434
 H        -0.5325822796       -3.4438489828       -1.8229863132
 H        -5.1918675873       -2.4968734428        1.7572159159
 H        -4.3005799091       -3.3369870494        3.1321246111
 H        -5.1701635265        1.8361907506        5.5077119790
 H        -4.1851949734        1.5365918787        4.0460928823
 H        -6.1902031419       -2.2484584781        5.8751575873
 H        -4.8473657162       -3.0651961373        5.6016655683
 H        -6.2071238673       -2.9808475108        4.3298346409
 H        -4.1215405191       -0.3685401597        6.6030034402
 H        -3.0652350379       -1.4802203337        5.9669256851
 H        -2.8912317702        0.0925768611        5.2687143717
 H        -5.7825772829        3.5429744553        3.7674163718
 H        -7.2788776754        2.4395824756        3.9869270128
 H        -6.3390763924        0.9728518424       -1.1731992551
 H        -7.4705068971        1.9872431677       -1.9894336531
 H        -6.8076227235        0.0335272916        1.0964616815
 H        -8.5385555050        0.6048316460        0.5100502413
 H        -8.0200233376        0.6093005859        2.2875980284
 H        -7.8401572403        4.3357134736        1.5747235751
 H        -9.1252913659        3.3810936320        1.0436321007
 H        -8.6600511107        3.0237991935        2.6537783633
 H        -5.5877634402        2.3559876481       -3.3087443399
 H        -5.5300591028        3.8091206562       -2.2158818072
 H        -1.3440176577        5.6761446130       -1.0913798016
 H        -2.9747100333        6.0486543091       -0.2982526380
 H        -1.2874598046        1.9344319807       -2.5061475540
 H        -0.7236065221        3.6240341400       -2.5798275835
 H        -1.9322231831        3.0682812918       -3.7177892804
 H        -2.1327328484        5.1771960228       -3.1992972772
 H        -3.5062479783        4.3853584153       -3.7988926099
 H        -3.6990964227        5.6063781686       -2.4937568609
 H        -2.0429950804        5.3211758061        1.9917506814
 H        -1.2593608688        6.6610047937        1.3386266117
 H         2.0023957626        3.0486777909        0.9548078570
 H         3.2274659442        3.2721705255        2.0876767892
 H         2.6759748614        5.9988749489        1.7328888317
 H         2.4918361760        5.8538237983        3.4193979391
 H         1.3764118748        6.8439665239        2.6808545694
 H        -1.2315868953        4.9089721794        3.6311341949
 H         0.1371741356        4.8638529023        4.6824178721
 H        -0.3227972167        6.3284152939        3.8474006556
 H         2.8765240762        1.1343112791        3.2336237226
 H         1.5324588987        0.7643385946        1.9012877539
 H         5.6297670279        0.7990747224       -1.3549861331
 H         7.0251177078        0.8584892393       -0.1652934671
 H         5.2742959579        1.2640373283        3.1330404204
 H         5.8045294575        1.8049860136        1.5875753312
 H         6.7183484829        0.4728456285        2.2696231370
 H         3.3481103038       -1.3526362606        2.8130884852
 H         4.6096765031       -2.3435476771        2.1710136792
 H         5.0722140146       -1.1514693444        3.4714602160
 H         7.6800922142       -1.4731212469       -1.0974199775
 H         8.0955656646       -0.1004539731       -1.9585543761
 H         3.9431980457       -3.4866910620       -2.0966413613
 H         4.0784246251       -2.2904103435       -3.2730071626
 H         7.1916485212       -3.2737304313       -5.6205408581
 H         7.1314774271       -1.5260889932       -5.5256901798
 H         5.6351472239       -2.4619390124       -5.4297659507
 H         8.1474307752       -3.2969399524       -2.0451095376
 H         8.5841862595       -3.9495212364       -3.4922301634
 H         8.7494117802       -2.1330731342       -3.2840995437
 H         3.7314460726       -4.0214082487       -5.1842986521
 H         3.7853231994       -5.2374451532       -3.9013522599
 H        -0.2045897861       -2.1295431584       -6.1020237533
 H         1.0930407399       -3.3726212652       -6.5725322792
 H        -0.6326190070       -3.5495265218       -7.1193771401
 H         2.2707615773       -5.4003772362       -6.1459736136
 H         0.7208512909       -6.1658520600       -6.2860460484
 H         1.8559643626       -6.7417090407       -5.2079423155
 H         0.4882380121       -5.4165227559       -2.2269408899
 H        -0.7983767507       -5.8474421049       -3.3911160252
 H         0.6460968414       -6.8795175902       -3.4181901767
 Na       -2.8258431759        0.8709036278        0.5484310689
