155

 C         0.6522331559       -0.8397344153       -0.1721467992
 C        -0.8455450827       -0.9427940115        0.1559720759
 C        -1.6842669256       -2.0721541633       -0.7073876803
 C        -2.9689978928       -2.3887274741        0.1184094729
 C        -2.9558764179       -3.1469711771        1.4300713504
 C        -2.1256785592       -1.3785535634       -2.0108511250
 C        -0.9634254205       -3.4218837187       -1.0006447517
 O        -1.3930566868       -0.1054174382        0.8357968338
 O        -4.0196452648       -1.9469270031       -0.2023112768
 C        -4.2961873632       -2.9241354779        2.2729514564
 C        -4.2382338753       -1.5356283751        2.9732584719
 C        -5.0970300510       -1.3810361421        4.2513412552
 C        -6.1608527956       -0.2798603720        3.9973268441
 C        -5.8460995806        1.2320669170        4.3531879036
 O        -3.4979071762       -0.6263573629        2.6095749383
 O        -7.1846508197       -0.5984318333        3.4428114978
 C        -5.7833295602       -2.7422612482        4.6516085678
 C        -4.1755668378       -1.0313988255        5.3673756028
 C        -6.7180652196        2.1419924814        3.4189359996
 C        -6.3046429914        1.9279827239        1.9301590296
 C        -7.4484870271        1.9334002141        0.7808125670
 C        -6.9785972596        2.8053441734       -0.4407062994
 C        -6.3408838647        2.1019659912       -1.7280274528
 C        -7.7099361836        0.5116295291        0.2667827796
 C        -8.7611139801        2.6738958921        1.3004751833
 O        -5.1672312825        1.5656051776        1.6170627091
 O        -7.1883019803        4.0100572185       -0.4886964024
 C        -5.4597557128        3.1836872891       -2.3929511436
 C        -4.0343346411        2.9644293683       -2.0473668369
 C        -2.9746851124        4.0368082714       -1.9998112059
 C        -2.6597046043        4.0571010497       -0.3915088894
 C        -1.6992295129        5.3333847661       -0.0433536616
 O        -3.7068988466        1.7884037883       -1.8126935671
 O        -2.9313754705        3.1902404657        0.3868519912
 C        -1.7843191306        3.6586026445       -2.9714562582
 C        -3.3642969754        5.4313486577       -2.4895183362
 C        -1.2118067740        5.2628533063        1.3732853899
 C         0.3009547065        5.3051036468        1.4820692006
 C         0.9696235795        5.0462433437        2.9540958778
 C         1.3949557237        3.5148616581        3.1689549640
 C         2.5330988916        2.9159354650        2.2049589447
 C         2.1668447298        6.0402934013        3.0734083362
 C        -0.0066812046        5.4041398107        4.0427382614
 O         1.0770678861        5.4488087968        0.5878590093
 O         0.9163582190        2.8505839728        4.1119771614
 C         2.8195384044        1.4198847300        2.5097765484
 C         3.7167142185        0.9715341568        1.3977323690
 C         5.0174509737        0.1386392068        1.6797781187
 C         5.3551109402       -0.5113101767        0.2856593251
 C         6.3185476907        0.1385276178       -0.7095955470
 O         3.2570034378        1.1025168946        0.2619457025
 O         4.7484602051       -1.5400336269       -0.0981337183
 C         6.0771407119        1.1344922692        2.1858824394
 C         4.7713294495       -0.9429169843        2.7516419716
 C         7.1748096164       -0.9778194156       -1.4490262443
 C         6.7843514882       -1.1562466747       -2.8927608869
 C         7.0688306812       -2.5179037092       -3.4922618677
 C         6.0071445035       -3.5879886406       -3.0025866741
 C         4.5421630407       -3.4103279190       -3.4648540626
 C         7.0467901463       -2.4013226903       -5.0427055718
 C         8.5838654116       -2.9458205637       -3.0430109524
 O         6.2009965001       -0.2644214466       -3.5040005441
 O         6.3611575922       -4.5829763430       -2.4320330759
 C         3.7565141335       -4.6882590161       -3.7521475085
 C         2.2775613883       -4.3643532191       -3.5685566842
 C         1.2691553625       -5.2567872202       -4.3284833081
 C         0.0300098231       -4.2502817987       -4.8072038587
 C         0.3322553484       -3.3242831260       -5.9628175069
 O         1.8555093313       -3.4608022907       -2.9514322592
 O        -0.9877086461       -4.2138069959       -4.1845209489
 C         1.8747905194       -5.9643402472       -5.5500659395
 C         0.7862475910       -6.3534110477       -3.2550989960
 H         1.1761683786       -0.1001485147        0.4706900389
 H         1.0681878049       -1.8562299589        0.0601834194
 H         0.9514107547       -0.6141007929       -1.2039195053
 H        -3.2019318537       -4.1507874387        1.0674112608
 H        -2.0611020323       -3.1587724562        1.9755364409
 H        -2.5275788236       -0.3763891938       -1.8564970730
 H        -2.7834686384       -2.0549800070       -2.5989739933
 H        -1.2388140817       -1.3795864285       -2.6391935504
 H        -0.9298097798       -3.9645783134       -0.0945703201
 H        -1.4571028148       -3.9944207175       -1.8439964423
 H         0.0532151442       -3.2643255176       -1.2795022305
 H        -5.1659406920       -3.0827438837        1.7033889414
 H        -4.3021400197       -3.6992660815        3.0060251427
 H        -6.0444700660        1.3571154185        5.4051166044
 H        -4.7828625634        1.4509784635        4.1883994678
 H        -6.3998414914       -2.5789493642        5.4982595089
 H        -5.0036969358       -3.4657545573        4.8116018101
 H        -6.2393883962       -3.3409805704        3.8852406089
 H        -4.6605149425       -0.8592667381        6.3075335316
 H        -3.4946602940       -1.8196241078        5.5456684412
 H        -3.6189120328       -0.1863004571        5.2854244349
 H        -6.5836826671        3.1877636871        3.7191256009
 H        -7.7867545338        1.9405456327        3.5932541514
 H        -5.8120971116        1.2609348201       -1.5045473716
 H        -7.1294976318        1.7668837067       -2.4585341254
 H        -6.9294508768        0.1727877164       -0.3080552553
 H        -8.5929736013        0.4399809771       -0.3090522593
 H        -7.9331292711       -0.2178434158        1.1162805007
 H        -8.5829348954        3.6854150826        1.3234461726
 H        -9.5184528774        2.2625593403        0.5979731097
 H        -8.9993920340        2.4239496867        2.3299216593
 H        -5.6338831212        3.2918221038       -3.4701126010
 H        -5.7483085656        4.1298452514       -1.9308839152
 H        -0.9658907249        5.3184440018       -0.7957188827
 H        -2.2549982341        6.2092040000       -0.2026731688
 H        -1.6022822742        2.5941820684       -2.9843786077
 H        -0.9364814905        4.2100138229       -2.6446012470
 H        -1.9868260699        4.0423630001       -4.0015836800
 H        -2.4875067127        6.1215823595       -2.5355028025
 H        -3.7117383633        5.4162965377       -3.5236572418
 H        -4.1684581455        5.9432106831       -1.9236716251
 H        -1.3975512355        4.2693194825        1.8188881937
 H        -1.5340296638        5.9336349177        2.1264562036
 H         2.2571224133        3.0493463557        1.1934810349
 H         3.3585888265        3.5135081153        2.4885996584
 H         3.1216678365        5.9399168967        2.4960393015
 H         2.5195155810        6.0479237051        4.1124321074
 H         1.9263653078        7.0351783699        2.8499621344
 H        -1.0844684619        5.2734680844        3.7513275061
 H         0.0654923062        4.7353691234        4.9790606811
 H         0.1062000363        6.3969029149        4.4202601239
 H         3.1176719800        1.2058140023        3.5656532225
 H         1.9350637255        0.8175303534        2.4333835200
 H         5.7405187343        0.5181206630       -1.5013461976
 H         7.0013015698        0.7251371545       -0.2217585213
 H         5.7899082699        1.6102482556        3.1239288822
 H         6.1892940498        1.8300977140        1.4074141587
 H         7.0791513320        0.6323888807        2.2774598649
 H         4.2608260241       -1.7664050266        2.4056780551
 H         5.7321824531       -1.2185319126        3.1565042569
 H         4.1369722060       -0.6211680670        3.5692630825
 H         7.0986192831       -1.9535507000       -1.0547797997
 H         8.2869746015       -0.7517396246       -1.4516504939
 H         4.1643313170       -2.8368923538       -2.6556496662
 H         4.4995087309       -2.6939322643       -4.2846604091
 H         7.3112146367       -3.3148299168       -5.6105896664
 H         7.7301568443       -1.5716655817       -5.3491456222
 H         6.0419604432       -2.1641713616       -5.4560791265
 H         8.7731937650       -2.9777022917       -1.9815724132
 H         8.8871611798       -3.8078861661       -3.6696904250
 H         9.3280128102       -2.1830574373       -3.3699072384
 H         3.9412989950       -5.1123740604       -4.7746226539
 H         4.0938342983       -5.3848923456       -2.9455269116
 H        -0.2543471166       -3.5339775518       -6.8262780968
 H         0.0798247383       -2.3207396198       -5.5808713754
 H         1.3881025051       -3.3573923894       -6.0850549568
 H         2.4065858748       -5.1851723209       -6.1851840044
 H         1.0551119961       -6.3002199207       -6.2579043400
 H         2.5788363183       -6.7063094912       -5.2302432765
 H         1.2251246481       -7.3225236247       -3.5477957849
 H         1.2703963041       -6.1143604580       -2.3137833777
 H        -0.3211716335       -6.2271316438       -3.1890023863
 Na       -3.5796767008        0.7908697784        0.3686285199
