155

 C         0.7608932942       -0.8872942540       -0.4945024394
 C        -0.7264567366       -0.7673639162       -0.2808982252
 C        -1.6817487369       -1.9031370686       -0.7411904615
 C        -2.9345933470       -1.9952346695       -0.0010883719
 C        -3.0127107337       -3.0201527903        1.1465727401
 C        -1.9496464852       -1.7452559369       -2.3482661144
 C        -0.8731114907       -3.2342609655       -0.6839787665
 O        -1.1731046393        0.3204887303        0.0938878533
 O        -3.8920733089       -1.3126710487       -0.2471754681
 C        -4.2146926340       -3.1065662788        2.1703236144
 C        -4.3935832388       -1.7664491217        2.9539345739
 C        -5.2785092443       -1.6366944304        4.2934095998
 C        -6.4311190655       -0.6525533123        3.7465554967
 C        -6.0313183216        0.8651752555        3.7841221962
 O        -3.8840104099       -0.7828870208        2.4730261295
 O        -7.4447831480       -0.9445591079        3.1797190316
 C        -5.8735592210       -2.9784845370        4.8253270768
 C        -4.3315125461       -1.0215810558        5.3995432292
 C        -7.0233615462        1.7629173284        3.0563793474
 C        -6.7895878175        1.6642610547        1.5468937820
 C        -7.9286864303        1.8748986890        0.4801235969
 C        -7.1558616251        2.8985764433       -0.5038112444
 C        -6.6798957331        2.3243263279       -1.8701394744
 C        -8.1175926985        0.4181966721       -0.1661277613
 C        -9.3250513283        2.3810344125        1.0326581889
 O        -5.6766811487        1.4664914337        1.0732478029
 O        -6.9554142141        4.0229942487       -0.0896095003
 C        -5.5844994132        3.2215670645       -2.3560014637
 C        -4.1092170789        2.8569486137       -1.9959395699
 C        -3.0274039989        4.0645934745       -1.7679221602
 C        -2.4229944887        3.8926677055       -0.2236312286
 C        -1.6227030023        5.1471944267        0.2300652975
 O        -3.6664259937        1.7050769590       -2.0139617102
 O        -2.5506664280        2.9517450347        0.5163809338
 C        -1.8026178069        3.8668175571       -2.7233564071
 C        -3.6453727757        5.4496898361       -2.0929720994
 C        -1.1146646149        5.0996737457        1.7231308651
 C         0.3773623220        5.3565402535        1.8689318238
 C         1.0387781708        5.3377300425        3.2827234347
 C         1.3757257026        3.7473355350        3.3038364659
 C         2.3541949934        3.1132555861        2.1845131593
 C         2.4011901066        5.9597477013        3.2505204082
 C         0.1723049857        5.8797227995        4.5027904705
 O         1.0107517059        5.5012454615        0.8939942155
 O         0.7952633916        3.0090042117        4.0824905236
 C         3.2381600073        1.9251784234        2.6755448261
 C         3.8698293321        1.2680816778        1.4255350510
 C         5.0283085834        0.2628904148        1.7613467429
 C         5.4152359079       -0.5038623423        0.3395394188
 C         6.5061571548        0.0757629811       -0.5841022687
 O         3.5419111325        1.5666218347        0.2695198816
 O         4.8494813915       -1.5411859619        0.0337896585
 C         6.1623845283        1.1906911135        2.2583987464
 C         4.6828307077       -0.7256061583        2.8327148189
 C         7.3066623611       -1.0927146092       -1.3144636912
 C         6.8625706940       -1.2227881691       -2.8294749699
 C         7.3014857813       -2.5454346262       -3.5200457766
 C         6.3305176165       -3.6768854778       -3.0144979277
 C         4.7309438968       -3.5230774811       -3.1892089729
 C         7.1561882764       -2.3071241239       -5.0296011433
 C         8.7341892029       -2.9249776833       -3.1739591937
 O         6.1041021867       -0.3334331471       -3.3170886745
 O         6.8007947475       -4.6582588377       -2.4522977965
 C         3.9116255371       -4.7969742393       -3.5186316835
 C         2.4546903888       -4.3555487412       -3.6136977284
 C         1.3267009742       -5.3345367780       -4.1981263666
 C         0.0539380512       -4.4093404034       -4.6615483533
 C         0.3096718491       -3.3529260722       -5.7442315557
 O         2.0403627016       -3.3461748205       -3.1171863064
 O        -1.0418822404       -4.5500161708       -4.1108576009
 C         1.8532788636       -6.0025572724       -5.4542327288
 C         1.0119365799       -6.3764126821       -3.0455435911
 H         1.2223215648        0.0276670697       -0.6752206579
 H         1.0305470950       -1.3625610106        0.5337361517
 H         1.1490040115       -1.7179960144       -1.1376179537
 H        -3.1871863139       -3.8835603186        0.4710924480
 H        -2.1414759041       -3.1409694067        1.6812658533
 H        -2.7092217993       -0.9452539678       -2.6752958683
 H        -2.3826311741       -2.6877528421       -2.6356656637
 H        -1.0761425606       -1.7338526005       -2.9231427076
 H        -0.3820031861       -3.3658234010        0.2743106929
 H        -1.6445100797       -4.0752450583       -0.7554706929
 H        -0.2666764257       -3.3519183946       -1.5305399982
 H        -5.1375705537       -3.3573410239        1.6809552346
 H        -4.0144647361       -3.9448596652        2.8579326475
 H        -5.9295954059        1.1164500552        4.8238207281
 H        -5.0455181671        0.9510353840        3.3245797731
 H        -6.3415581669       -2.8523796859        5.7717536968
 H        -5.1142470486       -3.7706103267        5.1803129755
 H        -6.4597756612       -3.5039135850        4.0611360872
 H        -4.9107504032       -0.4211246869        6.1582863691
 H        -3.8583521079       -1.7898446255        6.0712325568
 H        -3.6032948620       -0.3100239191        5.1532239466
 H        -6.8704994463        2.8014171143        3.3637832297
 H        -7.9951795745        1.5780976691        3.3973958190
 H        -6.2972703231        1.3552647699       -1.7723735167
 H        -7.5460076960        2.3289327390       -2.5958559373
 H        -7.1892200169       -0.1065471782       -0.4059565494
 H        -8.7540968588        0.3795071124       -0.9598027322
 H        -8.5877433939       -0.2330490318        0.5357164729
 H        -9.1691975211        2.9277899525        1.9581744350
 H        -9.7805803415        3.0526241386        0.2111074641
 H        -9.9564506539        1.5072320131        1.0993570207
 H        -5.4583753832        3.3422429098       -3.4324698945
 H        -5.7179190781        4.1875921860       -1.9462581000
 H        -0.9513047842        5.4503606529       -0.5494742270
 H        -2.4260847709        5.8514834104        0.2483454292
 H        -1.0787259304        3.2477627753       -2.2546683940
 H        -1.3838351209        4.7982520286       -2.9944502585
 H        -2.0974210461        3.4011419363       -3.6781378686
 H        -2.8650794710        6.2116335474       -2.0299197968
 H        -4.0112456286        5.3500792547       -3.0859889545
 H        -4.5387604141        5.9073002208       -1.6357204438
 H        -1.1262824245        4.0509838355        2.1898329634
 H        -1.7444577551        5.6971035554        2.4075825746
 H         1.6104083644        2.6853653683        1.4842846847
 H         2.9264981838        3.8961409489        1.7273158323
 H         2.8016169196        6.1242458830        2.2350037844
 H         3.2557197735        5.4295153381        3.7639431700
 H         2.4681787153        6.8856528073        3.7398053882
 H         0.0770804981        5.0671103618        5.2301827519
 H         0.4258483379        6.8795680375        4.9073610076
 H        -0.8719681033        6.0933986112        4.2243287289
 H         3.9770587821        2.2132083289        3.4432712315
 H         2.7290744994        1.1164799091        3.1363072938
 H         5.9108620077        0.6420486090       -1.2548360647
 H         7.2149114704        0.5499885791        0.0079188954
 H         5.8656898396        1.6720270119        3.1145394045
 H         6.4350356426        1.8923674263        1.5627350957
 H         7.0108504604        0.6156862169        2.3903956396
 H         3.5919206536       -0.8673983097        2.9817504234
 H         5.1092285554       -1.7537948743        2.7118179414
 H         4.9673788225       -0.3768204654        3.8395438794
 H         7.0898694706       -1.9807378341       -0.8210388401
 H         8.4127969213       -0.8758860233       -1.3288512100
 H         4.2880289461       -3.2888944889       -2.2441619299
 H         4.5180818148       -2.6951990238       -3.9216954759
 H         7.1138770641       -3.2148259927       -5.6251570677
 H         7.9302703876       -1.6213810157       -5.4206680856
 H         6.3039711332       -1.7106000927       -5.2871424935
 H         8.7969437000       -3.3160173789       -2.1515525063
 H         8.9725752939       -3.8601425370       -3.6803654405
 H         9.4770595548       -2.1296961840       -3.3743748893
 H         4.1190984365       -5.2552253745       -4.5076592831
 H         4.0006615883       -5.5826970188       -2.7066868356
 H         1.0670347158       -3.5977063788       -6.4234292663
 H        -0.5746072268       -2.9682717028       -6.2108777028
 H         0.7757806038       -2.6093672553       -5.0713608220
 H         2.2544798930       -5.2145430933       -6.1147519458
 H         0.9840037111       -6.5009976948       -5.9526070464
 H         2.5797934970       -6.7175460564       -5.1738756951
 H         1.8043410294       -6.4368629283       -2.3275982670
 H         0.0804297058       -6.1073359291       -2.5951040148
 H         1.1428047118       -7.2823960323       -3.6008792446
 Na       -3.6698435359        0.8430009075        0.1605164572
