155

 C         0.6182102612       -0.3458138818       -1.6727390888
 C        -0.7252141770       -0.6370622551       -1.0973609934
 C        -1.3642451225       -2.0687797122       -1.3188373328
 C        -2.7337553144       -2.0859272385       -0.5416798076
 C        -2.9324324490       -2.7123573312        0.8859793871
 C        -1.8008893877       -2.2243775019       -2.7999501499
 C        -0.4532625602       -3.2712029442       -0.7696904256
 O        -1.2615275324        0.1919819749       -0.3560561567
 O        -3.7201609053       -1.5281722946       -1.0122213327
 C        -4.4602298964       -2.6147089517        1.3980095968
 C        -4.3829977755       -1.4544230303        2.4534931313
 C        -5.3406522762       -1.7405702835        3.7011781778
 C        -6.6418373961       -1.0987365288        3.2396850030
 C        -6.7157540514        0.4620154561        3.0419005918
 O        -3.9444066226       -0.2909041680        2.3209989492
 O        -7.4828885545       -1.8699067192        2.8189794309
 C        -5.5239124349       -3.1933791024        4.0299567198
 C        -4.7192539353       -0.9954723194        4.9092464583
 C        -7.7789083224        0.7490077479        1.9463797897
 C        -7.3726250621        0.8416277284        0.5178959045
 C        -8.3679796128        1.5774347564       -0.4177039212
 C        -7.4902794991        2.7734905125       -0.8052450040
 C        -6.8300012102        2.9388975420       -2.2642029496
 C        -8.7574152378        0.7256756854       -1.5649211276
 C        -9.6026246574        2.1576871427        0.4191496599
 O        -6.2959609317        0.4379242961        0.0597887071
 O        -7.3414968816        3.6827101664       -0.0324919582
 C        -5.6968744917        3.9367990359       -2.2041447291
 C        -4.5147040959        3.2555469454       -1.4784904288
 C        -3.2578942232        4.0599969373       -1.0978031823
 C        -2.8132730215        3.9431873499        0.4910638313
 C        -1.7259099504        4.9756360740        0.9140221054
 O        -4.6733786707        2.1452834051       -1.0396236727
 O        -3.0354404194        2.9527220108        1.2235630955
 C        -2.0628925795        3.2235351314       -1.7626659031
 C        -3.1622560116        5.5545562642       -1.6272344544
 C        -0.9729376947        4.5603745468        2.2556274133
 C         0.1125402392        5.7287403322        2.3497821709
 C         1.2505989177        5.4989327622        3.4473862073
 C         1.8514501377        4.0271341677        3.2814372727
 C         2.7566795116        3.6253194118        2.1218750403
 C         2.5074284260        6.3775189579        3.2193701000
 C         0.7041369230        5.6669252216        5.0373065349
 O         0.1441867195        6.6600886732        1.5928073555
 O         1.5240143331        3.1359156157        4.0847549960
 C         3.9851196617        2.8050707792        2.5839794451
 C         4.3161209022        1.7115607735        1.5193530715
 C         5.1677697518        0.5752774668        2.0782183860
 C         5.6772517575       -0.4362627738        0.9333008459
 C         6.4618773006        0.1251546009       -0.1934014965
 O         3.8196320016        1.7104880299        0.3901257032
 O         5.3908157186       -1.6627569470        0.9258706267
 C         6.5094166292        1.0659474919        2.8390639348
 C         4.3736030439       -0.4751091122        3.0641167709
 C         7.3467690544       -0.8603401647       -0.9530347964
 C         6.9364119063       -1.1060546780       -2.3860692506
 C         7.4502020385       -2.4083370811       -3.1868678649
 C         6.4556106413       -3.5530129933       -3.0705311218
 C         4.9157469901       -3.2760803175       -2.9137921584
 C         7.5076951107       -1.8729681488       -4.7119761680
 C         8.8868610937       -2.8971729245       -2.7114050567
 O         6.3635807724       -0.2442154058       -3.0709198744
 O         6.8828160144       -4.6825222528       -3.0528997065
 C         4.0923317825       -4.4482963038       -3.4224046654
 C         2.5549499904       -4.2672556004       -3.3073989961
 C         1.6564972325       -5.5729923565       -3.7991180995
 C         0.2240946968       -4.9884105392       -4.1997463336
 C         0.0181685884       -4.2033945487       -5.5471314153
 O         1.9857154348       -3.2946782777       -2.8749852190
 O        -0.7653476880       -5.1666229069       -3.4189102471
 C         2.1602115354       -6.3183597079       -5.0127342626
 C         1.5370122226       -6.4544631325       -2.5317346694
 H         0.8860095117        0.6805442471       -1.6865780750
 H         1.4705313763       -0.7908247439       -0.9963287700
 H         0.6548433699       -0.8016783117       -2.7252610232
 H        -2.6841705310       -3.6943356429        0.7256039007
 H        -2.1638213800       -2.4660962975        1.6712744767
 H        -1.8307515118       -1.2259317478       -3.2942117934
 H        -2.8290757301       -2.5620336139       -2.9080813359
 H        -1.1284494227       -2.7575907788       -3.4235128158
 H        -0.2168005593       -3.0823043467        0.2289331116
 H        -1.2213540874       -4.1176530115       -0.7597496047
 H         0.4933272646       -3.4672815612       -1.2998771792
 H        -5.0164905503       -2.2950162929        0.5104520632
 H        -4.8862393773       -3.5093420637        1.7270582097
 H        -7.0313929495        0.8050129554        4.0078264168
 H        -5.7600248039        0.8976242883        2.7838923740
 H        -5.7444143415       -3.2591786986        5.1188422216
 H        -4.6013385086       -3.7098674788        3.7269688407
 H        -6.3595221686       -3.6478663826        3.4413540680
 H        -5.2462309039       -1.3180217407        5.8770694424
 H        -3.6295541499       -1.2885932611        5.0200775848
 H        -4.7570123766        0.0634368775        4.8179575487
 H        -8.2579335966        1.5699641538        2.3421051908
 H        -8.5524710956       -0.0530383611        1.9826295685
 H        -6.4962735530        2.0583483316       -2.6981212961
 H        -7.5934990829        3.3961161811       -2.9393666132
 H        -7.8461431176        0.4063558358       -2.0670157136
 H        -9.1755019532        1.2801574973       -2.3249339993
 H        -9.4131992297       -0.0805805095       -1.3897725020
 H        -9.3971109881        3.1528425835        0.7573166124
 H       -10.5453613042        2.1103385061       -0.2124937057
 H        -9.8074415378        1.6139327809        1.3889378132
 H        -5.3654449154        4.2873560768       -3.1325971337
 H        -5.9545024177        4.9033989208       -1.7288848472
 H        -0.8872986001        5.0522899431        0.2341505837
 H        -2.2299655783        5.9550337532        0.9676589456
 H        -2.3632222222        2.1903287953       -1.4897077564
 H        -1.0684351718        3.3812699060       -1.3426977492
 H        -2.0266413804        3.2589722620       -2.8764303838
 H        -2.2506723819        6.1422963914       -1.3979929878
 H        -3.2971397921        5.6809126093       -2.7063589639
 H        -3.8815144142        6.1458766824       -1.1007437970
 H        -0.6448789467        3.5204389053        2.0997674567
 H        -1.6080939903        4.5818392136        3.1725995845
 H         2.1295294024        2.9561869101        1.6471314074
 H         2.9288264680        4.4382780144        1.3970573581
 H         2.7433733177        6.6393455415        2.1244873195
 H         3.3925508432        5.8878981836        3.6421704928
 H         2.4790841968        7.3254117779        3.7117308432
 H        -0.3540657669        5.9456126257        4.9740982351
 H         0.6576142633        4.6703071477        5.4785339129
 H         1.3622604170        6.2626671683        5.5620706141
 H         4.9446713565        3.3012879142        2.5716021085
 H         3.7292018106        2.3130227076        3.5392553048
 H         5.9672750398        0.6860028121       -0.8875682176
 H         6.9973151143        0.9792901393        0.1716084066
 H         6.3104549171        1.2616328201        3.8445762190
 H         6.7730619791        1.9821563681        2.3869775480
 H         7.2777036232        0.3667044278        2.7680226678
 H         3.4834450871       -0.9699859737        2.6873057304
 H         5.1868378806       -1.2383075617        3.3225630467
 H         4.0716955756       -0.0916581114        4.1001093280
 H         7.3794964879       -1.8653545078       -0.4490112901
 H         8.3356891327       -0.5592540970       -0.9981471854
 H         4.7921011873       -3.1387589062       -1.8148202600
 H         4.7997148991       -2.3377005482       -3.3181736907
 H         8.1107683174       -2.4927401332       -5.3581056048
 H         7.9106982957       -0.8999718357       -4.7545978811
 H         6.5110096230       -1.9120017992       -5.1459290853
 H         8.8675864257       -3.2596547901       -1.7310178985
 H         9.3924046226       -3.4313154579       -3.5282548287
 H         9.4873602842       -2.0040944560       -2.5460182726
 H         4.3549527765       -4.7481708918       -4.5244066783
 H         4.3008844820       -5.2952171803       -2.8339558036
 H         0.2987987903       -3.1814439695       -5.5326256051
 H         0.6716999123       -4.6300312647       -6.3250454714
 H        -1.0207044631       -4.3130725372       -5.7912708168
 H         2.1866383117       -5.8296110036       -6.0003136641
 H         1.4664910953       -7.1412626893       -5.1100331614
 H         3.0913210826       -6.6853520339       -4.7285710206
 H         2.2261277866       -7.3023564720       -2.6063159875
 H         1.8948730628       -5.8405810369       -1.7416253657
 H         0.4695755170       -6.5483463016       -2.3016438089
 Na       -3.6292466161        0.6218589847        0.3072624396
