155

 C         0.9998387309       -0.2618435292       -1.4261310028
 C        -0.4549074455       -0.4722349017       -1.1110315365
 C        -1.2421940072       -1.7345336928       -1.6226085413
 C        -2.7738672979       -1.7382923509       -1.3639950784
 C        -3.3953280565       -2.9418967132       -0.4878171048
 C        -1.1260022890       -1.7569110503       -3.2159184583
 C        -0.5739310045       -2.9812055584       -0.9296913907
 O        -0.9928214475        0.3601395048       -0.4344507603
 O        -3.4876419143       -0.9290852537       -1.9482947735
 C        -4.8203923610       -2.5175893553        0.1155573027
 C        -4.7299656514       -1.5929207331        1.3895639728
 C        -5.5621934488       -1.9412787029        2.6752327023
 C        -7.0995168127       -1.8694876682        2.0541358254
 C        -8.0111882202       -0.6100858374        2.3939015797
 O        -3.7776300466       -0.7899914311        1.3771408052
 O        -7.4925968800       -2.7959103783        1.4197836475
 C        -5.1688704579       -3.3125498244        3.1982457857
 C        -5.4106074635       -0.9180709133        3.7710572940
 C        -8.5084031114       -0.1549226768        0.9976336455
 C        -7.3069156930        0.2666172966        0.0344176385
 C        -7.6442917135        1.0894684366       -1.2237273378
 C        -7.7755978832        2.5087755514       -0.7893724012
 C        -7.1225241652        3.6124294368       -1.6679713877
 C        -6.6299853550        0.8389752705       -2.3876630884
 C        -9.0795010346        0.7166406403       -1.7532596661
 O        -6.1519316248       -0.0443325772        0.1893941513
 O        -8.4577970855        2.8839938963        0.1806866448
 C        -6.2068345033        4.5683649534       -0.9527117810
 C        -4.8492819843        3.9657928383       -0.9210080859
 C        -3.6259745889        4.8710322089       -0.8570850079
 C        -2.4424890519        4.0935732695        0.0594398326
 C        -1.4005466547        5.0356818216        0.6866450254
 O        -4.6936044531        2.7352487329       -0.8509207832
 O        -2.5064815684        2.9117348600        0.4479348829
 C        -2.9013350549        5.0637624964       -2.2680899823
 C        -4.0494411214        6.2495667943       -0.2124281826
 C        -0.9980778431        4.7711759243        2.1823914070
 C         0.1654729314        5.5070428754        2.7589930519
 C         0.7906750322        4.8892365849        4.0949144000
 C         1.8910943484        3.8404442080        3.6584558221
 C         3.1166634183        4.3971081546        2.7691564401
 C         1.3373407139        6.1340565489        4.7940430795
 C        -0.2381445999        4.1155559732        5.0386199392
 O         0.8350116156        6.3292260709        2.1593578329
 O         1.8554649407        2.6919442743        3.9835742681
 C         4.4157602600        3.6141184636        3.0990082391
 C         4.2722026085        2.2452569721        2.3075507048
 C         4.8303458497        0.9234983335        2.8762314824
 C         4.9489079730       -0.2601124409        1.8144612349
 C         5.7162320225        0.0385456046        0.5937097543
 O         3.9100263416        2.2269822361        1.1485921345
 O         4.2996853931       -1.2579840452        1.9901134378
 C         6.2550132877        1.1206663559        3.3410630185
 C         4.0718491879        0.6188080713        4.1498083211
 C         5.5503845184       -1.1059531677       -0.3549377997
 C         5.8536902083       -0.5598806888       -1.8096388961
 C         6.8698640525       -1.3625108800       -2.8426124639
 C         6.3347323910       -2.9517994322       -2.8378847906
 C         5.5781932517       -3.4708479736       -4.0881315460
 C         6.8801995661       -0.7217452995       -4.1939587975
 C         8.2546945680       -1.2189673130       -2.1951574201
 O         5.2034467604        0.3612830381       -2.1874172438
 O         6.3678615229       -3.5670333147       -1.7611198324
 C         5.1557554224       -4.9141956753       -3.9428843644
 C         3.6528208134       -5.1532846195       -4.1306516862
 C         2.9362936504       -6.1376333136       -3.1447788678
 C         1.4947455263       -6.1976561039       -3.4930822211
 C         1.1289448067       -6.8621038020       -4.8263052765
 O         2.9917217770       -4.4328417356       -4.8955857193
 O         0.6314356386       -5.8106452716       -2.7755466731
 C         3.6081470442       -7.5072678779       -3.3421763338
 C         3.1865370908       -5.5087952909       -1.7133755763
 H         1.2752404268        0.6977803519       -0.9531855559
 H         1.5570329776       -0.9174490012       -0.8994901478
 H         1.3712940349       -0.1765384009       -2.4358508821
 H        -3.3632620855       -3.8536632869       -1.0646043359
 H        -2.7656276411       -3.1126922331        0.4021254574
 H        -1.8758452778       -0.9927485841       -3.6226354535
 H        -1.2605488622       -2.7346318346       -3.6520085868
 H        -0.1213634046       -1.6154873017       -3.5719714097
 H        -0.4290327045       -2.7119292492        0.1857575463
 H        -1.0991832913       -3.9071453045       -1.0213732846
 H         0.3352448157       -3.2144863176       -1.3718320199
 H        -5.4590189350       -2.1111260036       -0.7287966070
 H        -5.3694746201       -3.3878804925        0.4744558886
 H        -8.9327351219       -0.8996910291        3.0005083289
 H        -7.5467538414        0.1704002701        2.9815176768
 H        -5.6506896006       -3.8163577787        3.9369166086
 H        -4.1838814405       -3.0933000856        3.5864885414
 H        -5.2025977947       -4.0565300112        2.4387118458
 H        -6.0820396613       -1.2215330592        4.5089604677
 H        -4.4824115752       -0.8985011201        4.2131493973
 H        -5.7042713706        0.0733770054        3.4925929007
 H        -9.2314143255        0.6725188141        1.0740774264
 H        -9.0288038920       -0.9588764466        0.4316161561
 H        -6.6424897173        3.2070206971       -2.4619996440
 H        -7.9666694111        4.1909640632       -2.1452204594
 H        -5.7598533771        1.3876435270       -2.1968572961
 H        -7.1352016678        1.1007746387       -3.4218896597
 H        -6.3228939476       -0.1766076906       -2.1918309337
 H        -9.9057084442        1.1317631452       -1.1247337953
 H        -9.2734357458        1.0827853183       -2.7942707896
 H        -9.1820316255       -0.3188200233       -1.7198408274
 H        -6.1611528358        5.4474776891       -1.6253604626
 H        -6.6482123959        4.8895988291        0.0341957651
 H        -0.5456386131        4.9184969534       -0.0047556201
 H        -1.6409209347        6.1043048698        0.6879623225
 H        -2.5614250436        4.0841144309       -2.5370169923
 H        -2.1132257576        5.7859947642       -2.1300851519
 H        -3.5683038176        5.3778546325       -3.1135400877
 H        -3.1915692208        6.9061516111       -0.4132704325
 H        -4.7845934600        6.7648505862       -0.8314425691
 H        -4.3238329500        6.1733613657        0.8275024019
 H        -0.7130231764        3.7055525212        2.1558042856
 H        -1.9690781392        4.9467991589        2.7146893332
 H         2.9529595804        4.2235736869        1.6946962597
 H         3.1550302800        5.5478771716        2.9248334633
 H         2.1366272845        6.5539222854        4.1520132231
 H         1.6494217754        5.8747548957        5.8171727154
 H         0.5720908384        6.8522107547        4.8700542702
 H        -1.2714216073        4.3966000877        4.8802711219
 H        -0.0110453712        3.0335749478        4.9902014781
 H        -0.1217068101        4.3343939787        6.1351332453
 H         5.2858884452        4.1236343666        2.7083497474
 H         4.4313314404        3.4291057494        4.1775997096
 H         5.2683639392        0.9423637838        0.0617391548
 H         6.8038846528        0.0266370504        0.8414750406
 H         6.3750053241        1.7571423445        4.1694865779
 H         6.8887473317        1.4667265535        2.5940803789
 H         6.7283638994        0.2001030278        3.6753240124
 H         2.9561332291        0.7254834372        3.8870018860
 H         4.3585978151       -0.4049761121        4.4585226328
 H         4.2326153232        1.3657898804        4.8941823229
 H         4.4961125821       -1.5376032299       -0.3013964787
 H         6.2258001288       -1.9273066992       -0.0167495782
 H         4.7244793333       -2.8240392624       -4.3195693195
 H         6.3186053064       -3.3399230549       -4.9004135908
 H         7.4708205854       -1.3906383310       -4.8007098968
 H         7.3889530273        0.1953972019       -4.0903404677
 H         5.9011779463       -0.5762816518       -4.6458339343
 H         8.2187791648       -1.4518493993       -1.1474522174
 H         8.9684486121       -1.9683643364       -2.6303213204
 H         8.4782350885       -0.1565824691       -2.1338196435
 H         5.8151339403       -5.5675588690       -4.6171737921
 H         5.4906347973       -5.1640137398       -2.9790085002
 H         1.2654223897       -6.2367001553       -5.6509298829
 H         1.7455200956       -7.6681391446       -5.0899929816
 H         0.0499931840       -7.0675760031       -4.8213472721
 H         3.8522910541       -7.9564860737       -4.3068627430
 H         3.0005864828       -8.2722913390       -2.8521750288
 H         4.4077088239       -7.6136818694       -2.6863565211
 H         4.1742350775       -5.2685077303       -1.3805936125
 H         2.7021915070       -4.5797074832       -1.6264480248
 H         2.7709276460       -6.1776045234       -0.9407229240
 Na       -3.2681020319        0.8233460858       -0.3532684960
