155

 C         1.0006522466        0.1545513699       -1.3571974649
 C        -0.4748971313       -0.3532052119       -1.1035116914
 C        -0.9060663904       -1.7063102783       -1.7680816179
 C        -2.4416067528       -1.7702007301       -1.4247771408
 C        -2.9716197045       -2.9084127463       -0.3967965199
 C        -0.8016693852       -1.4480291637       -3.2956688895
 C        -0.2261537225       -2.9879815153       -1.2477234582
 O        -1.2638442496        0.2566617434       -0.4693453098
 O        -3.1421906380       -0.8400206494       -1.7270775675
 C        -4.4863222711       -2.5162215073       -0.0109534622
 C        -4.5526948471       -1.6260040257        1.3517195994
 C        -5.5196894594       -1.9456472363        2.5669022118
 C        -6.9497285545       -1.8729220359        1.8623174786
 C        -7.8276722648       -0.6398631947        2.1663114322
 O        -3.7784731438       -0.6900684439        1.4739056846
 O        -7.3455773421       -2.7771561576        1.1603253988
 C        -5.3051920477       -3.5513968980        3.0350134285
 C        -5.2969355242       -1.0398809815        3.7702455850
 C        -8.5851949064       -0.1896218473        0.9479257741
 C        -7.4427131554        0.2267401645       -0.1815830813
 C        -7.8961731555        0.9758978068       -1.4975202970
 C        -7.7861012916        2.5844943146       -1.0294015142
 C        -7.0881714291        3.7342567613       -1.9332655308
 C        -6.7438510409        0.7061054591       -2.5513489105
 C        -9.2668773521        0.5391748314       -2.0326860110
 O        -6.3225747921        0.0182059530        0.2202610050
 O        -8.2614427877        2.9209647905        0.0459494163
 C        -6.1369450869        4.5668500848       -1.1116758572
 C        -4.7698391596        4.0130067443       -1.1681671213
 C        -3.5448058032        4.8103166771       -0.7346704723
 C        -2.5010570077        3.9407421644        0.1158890853
 C        -1.2558273446        4.7830131214        0.5943856600
 O        -4.5610295761        2.8744515404       -1.6009946277
 O        -2.6954689639        2.7975450405        0.5261848715
 C        -2.9443770555        5.4494282483       -2.0958851361
 C        -3.9471090473        5.9183224280        0.3018717053
 C        -1.2152807631        4.7794562340        2.1323598127
 C         0.1516651112        5.3471894855        2.7930864946
 C         0.5869311354        4.8307697007        4.2111462565
 C         1.7727099082        3.9588644596        4.0603788837
 C         3.0468245492        4.4954054101        3.3296076405
 C         1.1002181668        6.1220298409        5.0194594359
 C        -0.5308863005        4.1148699638        5.0613146390
 O         0.8588449945        6.1462184821        2.2132486338
 O         1.7778898676        2.8620537769        4.5324297617
 C         4.2364824348        3.5327257165        3.4130076955
 C         4.0717940124        2.3240141484        2.5384712990
 C         4.9536579390        1.0011307385        3.0600414116
 C         4.7458602954        0.0022639977        1.8219139672
 C         5.5690301146       -0.0435190638        0.6403001227
 O         3.6313746036        2.3528115989        1.3838877333
 O         3.7876406845       -0.8095805552        1.8094015683
 C         6.4359773398        1.3124191628        3.2330963553
 C         4.2325800016        0.5495576299        4.3231999747
 C         5.0585754883       -1.0267505149       -0.4593136982
 C         5.5319311433       -0.6270526761       -1.9302564632
 C         6.6373356933       -1.4190444640       -2.7707256578
 C         6.3504101392       -2.9272723761       -2.9229649313
 C         5.8592903500       -3.5137024545       -4.2270085547
 C         6.7594615157       -0.6840626474       -4.1323789467
 C         8.0383828887       -1.2656825209       -2.0731980981
 O         5.0582784166        0.4054175648       -2.3964142290
 O         6.4607399507       -3.6531636708       -1.9254870688
 C         5.3152623006       -5.0133035706       -4.0839282926
 C         3.8106174511       -5.1995090702       -3.9569320019
 C         3.2152481861       -6.3070445124       -3.0192314024
 C         1.6907335863       -6.4167934054       -3.4644784572
 C         1.4542103668       -7.4491920797       -4.5973321813
 O         3.1382964463       -4.4344249477       -4.6664293692
 O         0.8478341221       -5.6238269188       -3.0575579041
 C         4.0398129552       -7.5935747969       -3.0933870571
 C         3.2064392922       -5.7120740028       -1.5899547332
 H         1.6010160350       -0.6339163490       -1.0025126295
 H         1.3312398150        0.3050302590       -2.3635201844
 H         1.3277405995        1.0853232879       -0.8966136496
 H        -2.9304297897       -3.9466935323       -0.6563453228
 H        -2.3267308159       -2.8275302190        0.5172478551
 H        -1.2909500931       -0.5091027259       -3.5145027784
 H        -1.3065525970       -2.2266001839       -3.8256802205
 H         0.2364554360       -1.5927364680       -3.6237280905
 H        -0.1235138695       -3.0824863400       -0.1306361071
 H        -0.5856857766       -3.8204679108       -1.7402444583
 H         0.7800211583       -2.9064390588       -1.5737832376
 H        -4.9962806157       -1.9711056949       -0.8243164003
 H        -4.9347214105       -3.4601286830        0.1558438757
 H        -8.5218194314       -0.8918984619        2.9937601564
 H        -7.1767695758        0.1826104717        2.4782240644
 H        -4.7066442641       -3.8205246275        3.9162318405
 H        -4.6785870108       -4.0029986931        2.1927705959
 H        -6.2025317482       -4.1540376120        3.1759566378
 H        -6.0409618645       -1.3769158656        4.5332582578
 H        -4.2983404930       -1.1922363054        4.1294993413
 H        -5.4410652331        0.0131660311        3.6901682930
 H        -9.2268514547        0.7227236297        1.0824109019
 H        -9.2321229000       -0.9842326655        0.4793645790
 H        -6.5872308298        3.3960381386       -2.8315860175
 H        -7.9086245156        4.2856709680       -2.3512125279
 H        -5.8097254889        0.4051898930       -2.0719136844
 H        -6.6317170903        1.5502138603       -3.2547440256
 H        -7.1113152243       -0.2454532218       -3.0367527259
 H       -10.0216177023        0.4744511722       -1.2089094261
 H        -9.6989297347        1.4297294274       -2.5807817620
 H        -9.1637324607       -0.2237553041       -2.7292483224
 H        -6.1056493769        5.5602567975       -1.5760558458
 H        -6.5025149899        4.7972473871       -0.0868780236
 H        -0.2675693628        4.4570124502        0.2328236685
 H        -1.3151330936        5.8408668136        0.2794109499
 H        -2.8722780959        4.6525121405       -2.8360610288
 H        -2.0684290154        6.0832934955       -1.9514803969
 H        -3.8100068626        6.1119632648       -2.4715913553
 H        -3.0383265660        6.2300120102        0.8417345939
 H        -4.2064744043        6.8309205107       -0.1884862969
 H        -4.7030509878        5.5891195078        1.0277715500
 H        -1.4828815241        3.7554577088        2.3507395702
 H        -2.0284483421        5.3347968482        2.5779766470
 H         2.7866112484        4.7282560147        2.3177809014
 H         3.3454110360        5.4969735590        3.7607904656
 H         1.6185549500        6.8409753687        4.3944763688
 H         1.7208999485        5.7946886189        5.9223535981
 H         0.2004645216        6.5481821442        5.4094722834
 H        -1.2342632327        4.8159209241        5.4062071269
 H        -1.0397395956        3.2652175485        4.6152821425
 H        -0.1566206681        3.6745784483        5.9859448892
 H         5.1519947226        4.0921671456        3.1579361269
 H         4.2993632766        3.2321779077        4.4717048577
 H         5.5131411099        1.0201113222        0.1886009850
 H         6.6648140792       -0.2562720583        0.8873906682
 H         6.6373251317        2.0533571804        3.9068892640
 H         6.9194195455        1.6332926550        2.4082215856
 H         6.9778905903        0.4590618953        3.5555827392
 H         3.2070440147        0.1447761856        4.0974209834
 H         4.8100928782       -0.3025644550        4.7938732321
 H         4.1991127276        1.3745650070        5.0449831193
 H         3.9280979937       -0.9205311055       -0.5083816376
 H         5.3832579756       -2.0053500265       -0.2199062986
 H         5.1678854994       -2.8318446587       -4.7887499292
 H         6.7570193307       -3.5423341934       -4.8912814034
 H         7.6899366217       -1.0349622112       -4.6170223261
 H         6.8546156321        0.3917791899       -3.9752843310
 H         5.8523737618       -0.8588922020       -4.7450841567
 H         8.0600652399       -2.0671012121       -1.3368672265
 H         8.9384376242       -1.4165372535       -2.7599770074
 H         8.1315183644       -0.2780630933       -1.5754561078
 H         5.8110208402       -5.4914366903       -5.0452720972
 H         5.9148478581       -5.4120448999       -3.3328309451
 H         1.0609399926       -7.0623657059       -5.5253009002
 H         2.2786808501       -8.0427246783       -4.8598108584
 H         0.5862309657       -8.0067295948       -4.2101689559
 H         4.1531471423       -7.9533225479       -4.0915634268
 H         3.7808472383       -8.4307333681       -2.4419153839
 H         5.0257404019       -7.4230616651       -2.8110787004
 H         4.1422143315       -5.4089310384       -1.1315780029
 H         2.5810378124       -4.8116243710       -1.6699595958
 H         2.6990498840       -6.3315205538       -0.7733549516
 Na       -3.8938925928        0.9455105939       -0.2659743008
