155

 C         1.0315849088        0.3120807758       -0.6078209059
 C        -0.3987565185        0.1008704014       -1.0594562385
 C        -0.8845590092       -1.2855397925       -1.8030861939
 C        -2.3200799679       -1.5679933460       -1.2950830280
 C        -2.5038912879       -2.4865778591       -0.1193073749
 C        -0.8223862328       -0.7996613012       -3.2916190918
 C         0.0631412367       -2.5359696846       -1.6643741663
 O        -1.1349825201        1.0404803357       -0.9855743446
 O        -3.2363616811       -1.2648060284       -2.0408055988
 C        -3.9718146960       -2.7696681964        0.2468585674
 C        -4.3645726286       -1.8798774542        1.3542865504
 C        -5.4570110548       -2.3565805909        2.4324782797
 C        -6.7678266176       -2.0203736881        1.5691596648
 C        -7.4971012779       -0.7127036155        1.7950484086
 O        -3.8990344045       -0.7646116826        1.3577596069
 O        -7.0476246782       -2.7550057854        0.6790558040
 C        -5.1444892948       -3.8089843750        2.8790278985
 C        -5.2958367308       -1.4188236257        3.7027467292
 C        -8.1831307926       -0.2580163223        0.5341988014
 C        -7.2562733439        0.3624424736       -0.5153913514
 C        -7.9311772391        1.0606390674       -1.6922999216
 C        -7.5405713330        2.6332748363       -1.4995228737
 C        -6.8312605952        3.5884654442       -2.6210992277
 C        -7.2417274951        0.5527454245       -2.9710411305
 C        -9.4605073796        0.8961444955       -1.8715516296
 O        -6.0207879488        0.1667299183       -0.4966366265
 O        -7.8198576025        3.1680927878       -0.4528867852
 C        -6.0308149448        4.6378635369       -1.9293199867
 C        -4.7035314737        4.0159819702       -1.3477761383
 C        -3.6843128569        4.7364816957       -0.4641195833
 C        -2.7944832308        3.7880379309        0.4906086486
 C        -1.4563155928        4.3478811271        0.9671713270
 O        -4.4646971494        2.8371785508       -1.6600723150
 O        -3.1734377443        2.6874421733        0.8730282952
 C        -2.7824790412        5.7100408593       -1.3990831943
 C        -4.5009573153        5.5634171332        0.5155726106
 C        -0.9949802196        3.9025867239        2.3369277875
 C         0.0762266212        4.7501370221        2.8434254174
 C         0.4018057292        4.8363306301        4.4847136438
 C         1.6840399195        3.9719981449        4.6761034020
 C         3.0457541375        4.4563340029        4.0261178345
 C         0.6454993573        6.3677219575        4.8196064510
 C        -0.6773218206        4.3118167449        5.4824928744
 O         0.6827006864        5.5806313878        2.1772264327
 O         1.5555929625        2.8900228757        5.1491440350
 C         4.1176103481        3.4035838309        3.8813464297
 C         3.8590438716        2.4036610576        2.8473236367
 C         4.7498160536        1.1101411721        2.7848945745
 C         4.2538958179        0.1965730439        1.5764283807
 C         5.0332238844        0.3238523506        0.1762308061
 O         2.9288956052        2.6056153843        2.0519572303
 O         3.2383851903       -0.4512066437        1.7638372466
 C         6.2588864229        1.5364890980        2.7271211433
 C         4.5135395977        0.3545106611        4.1556527471
 C         4.9072432377       -0.9120259581       -0.6020846499
 C         5.2395502259       -0.7050909123       -2.0673485622
 C         6.5015288381       -1.2351434097       -2.6870192225
 C         6.1129489033       -2.8367329682       -2.8791627601
 C         6.2219190770       -3.6361178047       -4.1751929701
 C         6.7985087105       -0.5693624484       -3.9829588175
 C         7.6710320996       -1.1992983269       -1.6551307091
 O         4.4256989746       -0.1807502468       -2.8035896418
 O         5.8956359291       -3.5338692039       -1.8805556470
 C         5.7016379986       -5.0067465659       -4.0110541167
 C         4.1278676598       -5.1263887885       -3.8432682370
 C         3.4784547918       -6.2784419603       -2.8261265683
 C         2.0015339461       -6.6256231189       -3.3164677290
 C         1.8393908516       -7.7560017118       -4.3682048603
 O         3.4070980662       -4.2143718154       -4.2701655063
 O         1.0612552430       -6.0628106344       -2.8297406530
 C         4.4407824799       -7.5512944326       -2.8548716615
 C         3.5230454121       -5.7340251030       -1.3903820341
 H         1.5047506466        1.0590900420       -1.2211411350
 H         1.1795096206        0.4614941409        0.3741433748
 H         1.6505449143       -0.5424595051       -0.9277623667
 H        -1.8613088658       -3.3421527945       -0.4798135817
 H        -1.9625203388       -2.1338033975        0.7210005319
 H        -1.2166791020        0.2366626569       -3.5210628036
 H        -1.4663964229       -1.5104577153       -3.7717489992
 H         0.1772051896       -0.6936979012       -3.5605545019
 H         0.1451663371       -2.7947838055       -0.5698283436
 H        -0.4632550251       -3.3986467406       -2.0670712758
 H         0.9707357824       -2.3693880927       -2.1365499882
 H        -4.4912948815       -2.4267020665       -0.6697869240
 H        -4.1602213905       -3.8400022140        0.6070896720
 H        -8.2586323638       -0.6806722641        2.6474089201
 H        -6.7357146221        0.0463681170        1.9836241458
 H        -4.6310066589       -4.4247090144        2.2450826074
 H        -5.8268376063       -4.2780490338        3.5602490002
 H        -4.4158275902       -3.6274511440        3.6851050973
 H        -6.0784188624       -1.4685032536        4.3760182031
 H        -4.4857268485       -1.6156065546        4.3004754517
 H        -5.1597055851       -0.3987033471        3.3926028576
 H        -8.9567401572        0.4875590425        0.7522422908
 H        -8.6261711536       -0.9508072984       -0.1643011583
 H        -6.2524202164        3.0792691686       -3.3018268992
 H        -7.7565426888        4.0392056454       -3.2061290883
 H        -6.2591243291        0.9281693145       -2.8866061438
 H        -7.7208456172        1.2948119501       -3.7864316538
 H        -7.3390989853       -0.4275881926       -3.3792335905
 H        -9.9246661178        0.7705990093       -0.9087872920
 H        -9.8470148734        1.7923416650       -2.4012401219
 H        -9.6388901855        0.0000681718       -2.4279603948
 H        -5.8324999537        5.5567270313       -2.5518527162
 H        -6.6947017569        5.0595152530       -1.1520778843
 H        -0.6238252625        4.0242609039        0.3477254556
 H        -1.3845080644        5.4198216919        0.9287070383
 H        -2.1318389022        5.0553994128       -2.0056862283
 H        -2.0041256720        6.3804947882       -0.9336544147
 H        -3.4774520224        6.3171849090       -1.9732519507
 H        -4.2820074680        5.5501033370        1.5781764542
 H        -4.4425887123        6.6083045181        0.0931780020
 H        -5.5395105317        5.3966306518        0.4259178033
 H        -0.8257279668        2.7833972906        2.2988537081
 H        -1.8207880925        3.7761809383        3.1202891923
 H         2.6707350411        4.8762538303        3.0331179100
 H         3.3977285959        5.3541717567        4.5953041272
 H         1.4466986403        6.7597549928        4.1207016455
 H         1.0540041608        6.4752450570        5.7835576058
 H        -0.2930227650        6.9389040746        4.7034872272
 H        -1.6127251406        4.9174457143        5.4648217501
 H        -1.2046417794        3.4913345696        5.0761140794
 H        -0.3725827557        4.1466472233        6.4818307413
 H         5.1001305386        3.8499327414        3.8193881028
 H         4.1797500225        3.0168887966        4.9078709308
 H         4.8049114861        1.2531399864       -0.3580760130
 H         6.0680306980        0.6078317989        0.3929523231
 H         6.5207201927        2.0079431882        3.6186188327
 H         6.5000790563        2.1113003635        1.9021315966
 H         6.9131216545        0.6766772630        2.6777671847
 H         3.3651734358        0.1258548450        4.2121549957
 H         4.9807156970       -0.6647444710        4.0859202155
 H         4.9333445752        0.8748228483        5.0303446923
 H         3.8087729635       -1.2032458046       -0.6178199905
 H         5.5662477534       -1.7770711116       -0.1289409091
 H         5.7596508479       -3.2036806089       -5.0520927543
 H         7.3232533254       -3.6122967947       -4.3820142869
 H         7.8001764690       -0.8528160980       -4.3373534483
 H         6.7892290738        0.5085753628       -3.8085052846
 H         6.0560003841       -0.7923384917       -4.7884647068
 H         7.5340419306       -1.9664720884       -0.9137422946
 H         8.6545997073       -1.2788199521       -2.1839649075
 H         7.8285548122       -0.1685966798       -1.2534314951
 H         6.0639672186       -5.5517026480       -4.7957201602
 H         6.2118504726       -5.3879521585       -3.0882199838
 H         0.8594343386       -8.0588106223       -4.3384258167
 H         1.9994115671       -7.3455227248       -5.3490819789
 H         2.5451924475       -8.6019678278       -4.3256965067
 H         4.3785798070       -7.9205592687       -3.8959703020
 H         3.9817564004       -8.3285581683       -2.3510088759
 H         5.4954496291       -7.4278502620       -2.6547391714
 H         4.4664634467       -6.0243041932       -0.8711771811
 H         3.4655218476       -4.6353092987       -1.2966821449
 H         2.6654446802       -6.0605959906       -0.8143493611
 Na       -3.5414084950        0.8498544939       -0.5293990132
