155

 C         1.0162780097        0.7799044229       -0.4993058789
 C        -0.4166105867        0.3932259103       -0.9208108299
 C        -0.6805670487       -0.8097495162       -1.8671605595
 C        -2.0365117834       -1.4514284386       -1.4888745890
 C        -1.9952852446       -2.4171546562       -0.3228572643
 C        -0.7686030873       -0.0995186330       -3.2289073075
 C         0.4542688537       -1.8217048054       -2.0020085501
 O        -1.3920766841        1.1622896522       -0.7038915295
 O        -3.0891986318       -1.2367595642       -2.1081588133
 C        -3.3927587301       -2.9417729086        0.1270771320
 C        -3.9004763974       -2.0000839055        1.2249916994
 C        -5.0930545121       -2.3388534974        2.0406597619
 C        -6.4494652790       -1.8992723489        1.2142412818
 C        -6.8640037290       -0.4024685029        1.3996735886
 O        -3.3151708566       -0.9308864792        1.3834855798
 O        -7.1603647148       -2.7237126653        0.7906642389
 C        -5.3080503231       -3.7778626384        2.4025174062
 C        -5.0757583588       -1.4831454569        3.4313822334
 C        -7.7950965880        0.1406362046        0.2999568935
 C        -7.0253068501        0.3755981337       -0.9781505231
 C        -7.7139251431        1.0056965182       -2.2218058949
 C        -7.2139543104        2.5689819387       -1.9725889994
 C        -6.4267668604        3.3419676670       -3.0132844306
 C        -7.3775250232        0.4722153774       -3.5405112132
 C        -9.2668685221        1.0933747391       -2.1881517392
 O        -5.8500550642       -0.0176278716       -1.0941572383
 O        -7.4656172930        3.0094125832       -0.8617442663
 C        -5.5075890408        4.4441188161       -2.4005166837
 C        -4.6497430675        3.6637478613       -1.3580212181
 C        -3.8604731275        4.6034699642       -0.2223705325
 C        -3.0805535758        3.6714378435        0.7742936741
 C        -1.8753094238        4.2680732816        1.3850552000
 O        -4.4317915610        2.4614712324       -1.4183900054
 O        -3.5813795387        2.6078150679        1.1367191879
 C        -2.9623171236        5.5723430988       -0.9810059143
 C        -5.0265019062        5.4150665425        0.4910160124
 C        -1.1613641965        3.5317858163        2.5549988803
 C        -0.0476295652        4.4349360245        3.1219068586
 C         0.1791512168        4.6616338566        4.6295212614
 C         1.4935218301        3.8905336890        4.9721100376
 C         2.8800736646        4.5211216651        4.4768507751
 C         0.4323618610        6.2326874601        4.8274285685
 C        -0.8578485729        4.1936173686        5.5259088876
 O         0.6506890042        5.0197022371        2.3540619447
 O         1.4710261549        2.8377239132        5.5667978800
 C         3.8670857876        3.2883039986        4.2965608085
 C         3.5297703229        2.4350764077        3.0697514206
 C         4.4405668862        1.2348807363        2.5469392454
 C         3.8400650502        0.3900906209        1.4592629359
 C         4.5426616047        0.5172295720        0.0215217296
 O         2.4227157188        2.5620468205        2.5256136352
 O         2.8406761118       -0.2680732048        1.6051746436
 C         5.8570951496        1.7425176430        2.3251674684
 C         4.4797856668        0.1932448751        3.7415166586
 C         4.3424001959       -0.8179500921       -0.7418514008
 C         4.7878051352       -0.6590009659       -2.2222864090
 C         6.1655193352       -1.1079680353       -2.5501694023
 C         6.0420152876       -2.7835286565       -2.6451434652
 C         6.1185979957       -3.5852125866       -3.9148601789
 C         6.7798114907       -0.6206069299       -3.8945026883
 C         7.2608531819       -0.9575054338       -1.4964810966
 O         4.0811008616       -0.1260448837       -3.0642200585
 O         5.9534986574       -3.3119457659       -1.6137079900
 C         5.7569450251       -5.0577104447       -3.7961709700
 C         4.3055866508       -5.1987309737       -3.4836095851
 C         3.8640244360       -6.4277986433       -2.5457075796
 C         2.3636324701       -6.6447087355       -3.0243731512
 C         2.2052918219       -7.0512214705       -4.4818505427
 O         3.4212524315       -4.5299202247       -3.9756457513
 O         1.4265600529       -6.4985124170       -2.2524696345
 C         4.7289918187       -7.6663311393       -2.8236193449
 C         3.8336637212       -5.9882103735       -1.1055991884
 H         1.1784345479        0.6012555041        0.6372779896
 H         1.7452871416        0.1134126613       -0.8470266572
 H         1.3147724134        1.8569134279       -0.7292358209
 H        -1.3777672647       -3.2461842357       -0.5173274866
 H        -1.4548732903       -1.8475559085        0.5011767315
 H        -1.6196033428        0.5767800285       -3.1227386827
 H        -1.0066187913       -0.8979881886       -3.9838420637
 H         0.1568188002        0.4496892564       -3.5959955355
 H         0.6025837115       -2.3362376917       -1.0898476343
 H         0.0291574504       -2.4221910094       -2.8753866197
 H         1.4421298458       -1.4596689952       -2.4279213132
 H        -4.1448181565       -2.7430559187       -0.7065538828
 H        -3.3196824464       -3.9536234574        0.4774376234
 H        -7.3339436102       -0.3212298692        2.3327404461
 H        -5.9033011337        0.1937867537        1.5381116408
 H        -5.7207708087       -4.2186151637        1.4945331937
 H        -6.1421042666       -3.7828871567        3.0415566361
 H        -4.4573874330       -4.3652048337        2.7534387051
 H        -5.8612030529       -1.6047345270        4.0542363442
 H        -4.1695412860       -1.8433302860        3.8721714089
 H        -4.9919302771       -0.3855916856        3.3498518422
 H        -8.2365980313        1.0766710700        0.5024606911
 H        -8.5672611221       -0.5633269260        0.0298313230
 H        -5.7625970297        2.5877027540       -3.5409989625
 H        -7.0694027769        3.8806259278       -3.6266679693
 H        -7.7717509732       -0.4867807160       -3.8245334214
 H        -6.2151476277        0.4699483811       -3.5836123029
 H        -7.7117079405        1.1023912492       -4.2940268833
 H        -9.5852291596        1.2190154733       -1.1774234916
 H        -9.5951270439        1.9373898448       -2.7164414066
 H        -9.7314766644        0.1752572393       -2.7100022346
 H        -4.9882486939        5.0652683767       -3.1298252076
 H        -6.2507816642        5.1034799504       -1.8686915484
 H        -1.0685916486        4.6179774903        0.7464471342
 H        -2.1717702486        5.2214513834        1.8530210971
 H        -2.0400988456        5.0830680843       -1.3949281849
 H        -2.6494688718        6.4882559383       -0.4177470545
 H        -3.4226584037        5.9061844873       -1.9112316100
 H        -5.7752980277        5.7569182952       -0.1991759187
 H        -5.6370786920        4.8994509618        1.2378379129
 H        -4.6823768246        6.3037825369        1.0551388258
 H        -0.8333447071        2.4971835505        2.2654888463
 H        -1.9907251033        3.3858013489        3.2139238383
 H         2.8655203200        5.1548290733        3.5602009868
 H         3.2443709554        5.0749546159        5.3369999644
 H         1.2335897423        6.5748872113        4.1971731775
 H         0.5289731689        6.5906968172        5.8572926278
 H        -0.4816363161        6.7513965315        4.4516780797
 H        -1.6965101177        4.8934740768        5.6616501664
 H        -1.2151975776        3.1571101559        5.4066979295
 H        -0.4568018537        4.0798504495        6.5372213675
 H         4.8904165204        3.7191666300        4.3610085296
 H         3.8848448019        2.7544254548        5.2433292629
 H         3.9414309921        1.2486953338       -0.4852236306
 H         5.5756033241        0.9334808688       -0.0505089628
 H         6.2146479400        2.2301649818        3.2515547679
 H         5.7569373295        2.5939127193        1.6298099745
 H         6.4239118601        0.8985871584        1.9550929099
 H         3.4612507131       -0.0279511946        4.0952804602
 H         5.0702692968       -0.6824292283        3.4352371447
 H         4.9280019915        0.7404054178        4.6205729306
 H         3.3431810497       -1.0771975257       -0.6491732574
 H         4.7152768161       -1.6746225425       -0.2378962712
 H         5.4492601148       -3.1673578410       -4.6747016845
 H         7.0857036074       -3.4545474115       -4.3202493561
 H         7.8342042914       -0.9193752375       -3.9804255523
 H         6.7516912499        0.4701896820       -4.1443968200
 H         6.2877484008       -1.1132649760       -4.7158811565
 H         7.0800888526       -1.3339002148       -0.4469553883
 H         8.0002314449       -1.5789306571       -1.9176076054
 H         7.4587497661        0.0908250497       -1.3243481552
 H         6.0181242234       -5.5197470364       -4.7613461856
 H         6.4669545415       -5.4855473389       -3.0010816262
 H         1.5284908414       -7.8858517694       -4.5323560440
 H         1.7786967262       -6.2134231162       -5.0564286103
 H         3.1104057424       -7.2486104344       -4.9867247257
 H         4.6138844711       -7.9353385533       -3.8419378893
 H         4.4985094824       -8.4700354661       -2.1044491946
 H         5.7541907909       -7.3745689593       -2.4938670039
 H         4.7027125956       -5.3911278410       -0.8112412151
 H         2.9189973855       -5.4253326070       -0.8488363216
 H         3.9442507018       -6.8957916627       -0.5386774053
 Na       -3.7397041256        0.7584969843       -0.3541950294
