155

 C         1.6492401826        1.6183475917       -0.9655102744
 C         0.2853724281        1.0946674281       -1.1082078130
 C         0.0074539545       -0.3141661000       -1.9205429939
 C        -1.2611465075       -0.9855275488       -1.2182963607
 C        -0.9345639241       -1.9288695980       -0.0626582954
 C        -0.3708555818        0.1941196363       -3.4111986458
 C         1.3239644369       -1.0829460503       -1.9852824599
 O        -0.6876080771        1.7733563597       -0.6521948232
 O        -2.3752027242       -0.6507550818       -1.5555770665
 C        -2.1205199972       -2.7248407456        0.6137424162
 C        -3.4087438778       -1.9699433737        0.9468431036
 C        -4.7218138182       -2.8553141432        0.9810848080
 C        -5.7670769765       -1.8647295045        0.2732840798
 C        -6.3470804349       -0.7568861164        1.1062890872
 O        -3.4522166957       -0.8449475863        1.3259967943
 O        -6.0601787747       -2.1252338345       -0.9012126795
 C        -4.7507444815       -4.1490271675        0.1107917446
 C        -4.8697740261       -3.1211593634        2.5090400188
 C        -7.2487827056        0.0610313399        0.1901031336
 C        -6.6117764900        0.7479270693       -1.0218082786
 C        -7.5592590095        1.2134658799       -2.2032230041
 C        -7.2241092076        2.5800057267       -2.7290223542
 C        -5.8483138687        2.8308879970       -3.4636681368
 C        -7.3696663831        0.1415533885       -3.3515472327
 C        -9.0611046151        1.2810500377       -1.6938719112
 O        -5.3961129153        0.8861255541       -1.0623241867
 O        -7.9706351144        3.5589950639       -2.6915014890
 C        -5.1075135761        4.0789564546       -2.9937971632
 C        -4.3105375936        3.8194939493       -1.7279478500
 C        -4.8109169258        4.5342664822       -0.4211196888
 C        -3.9574637869        3.8786619858        0.7271151403
 C        -3.1523791843        4.6740155852        1.6661803288
 O        -3.4515867681        2.9656533732       -1.6468619818
 O        -4.1290968338        2.6675001246        0.9197541344
 C        -4.5173139053        6.0698721633       -0.4927711485
 C        -6.2688550286        4.1567150921       -0.2474597253
 C        -2.5606831106        3.8049141916        2.7795850687
 C        -1.5427614912        4.5911454181        3.6775947497
 C        -0.9420378639        3.9727628704        5.0356055722
 C         0.2921774446        3.0865060391        4.7377177967
 C         1.4797293080        3.8878726509        4.1025341537
 C        -0.5892716287        5.2282472641        5.9684112940
 C        -2.0129116440        3.1893663696        5.7910482277
 O        -1.1833753033        5.7046044861        3.3460016824
 O         0.2963176229        1.8959654024        4.7990908018
 C         2.8060151822        3.1585566715        3.9980915520
 C         3.0501763313        2.2037043503        2.8345800541
 C         4.0207496786        0.9806076603        3.1621659543
 C         4.0725314047        0.0749444766        1.8753258625
 C         5.0431771027        0.4358404111        0.7053865213
 O         2.5039387080        2.2412628495        1.7846156781
 O         3.3654978654       -0.9373725139        1.8267298050
 C         5.3811872795        1.5367752869        3.4205763349
 C         3.5558605925        0.0947684641        4.3294354485
 C         5.4632423289       -0.7269030779       -0.3169713483
 C         5.1622479522       -0.3046309005       -1.7614225783
 C         6.1685201299       -0.8168003738       -2.8966806592
 C         6.4838969589       -2.3115982474       -2.7386764696
 C         5.6125483488       -3.3685879565       -3.6615398995
 C         5.4315796264       -0.4619713064       -4.2533149970
 C         7.5111997654        0.0446699497       -2.8929111032
 O         4.2701113153        0.3756959028       -2.1065962846
 O         7.2747093602       -2.5407262288       -1.8168407082
 C         5.8297304396       -4.8123014908       -2.9797464861
 C         4.4326586168       -5.3402249138       -2.4373021150
 C         4.1899986687       -6.9165587855       -2.2276202282
 C         2.5524767698       -7.0419100619       -2.2681012954
 C         1.8692290204       -6.7813023009       -3.5894110793
 O         3.5940376611       -4.5989146753       -2.0615190573
 O         1.9941380314       -7.4807349280       -1.2897207075
 C         4.8689945833       -7.7460244604       -3.3272607757
 C         4.5596197428       -7.3697361161       -0.7635099929
 H         2.3300482425        1.7378235141       -1.8897330271
 H         1.6827578868        2.5741912802       -0.4459829577
 H         2.1888949724        0.9761548509       -0.2391311204
 H        -0.1045301964       -2.5829688070       -0.2770428832
 H        -0.5480685473       -1.1253030280        0.6535389824
 H        -0.9375650203        1.1595267018       -3.4272838970
 H        -0.9838386235       -0.6236519587       -3.8469609159
 H         0.4923648384        0.4038041704       -4.0839216254
 H         1.7466741971       -1.2652729436       -1.0050036081
 H         1.3549967947       -1.9614739657       -2.5961228083
 H         2.1408851526       -0.4392934628       -2.4856595615
 H        -2.3431580618       -3.6280457259        0.0601016293
 H        -1.6663148839       -3.1313588820        1.4969778562
 H        -6.9428390620       -1.1706117250        1.9445332959
 H        -5.6179806106       -0.0799593894        1.5011398993
 H        -4.3248644417       -3.8486460722       -0.8462907601
 H        -5.7813005802       -4.5284376720       -0.1811335513
 H        -4.1857291275       -4.8945706931        0.5946193128
 H        -5.9117189428       -3.4533625715        2.6684346248
 H        -4.0523737732       -3.6788419128        3.0027659934
 H        -4.8215360464       -2.1381825419        2.9800029593
 H        -7.7106129223        0.8018326832        0.8212527166
 H        -8.0633072133       -0.5721044946       -0.2651992554
 H        -5.1889858280        1.9788566119       -3.5734167697
 H        -5.9917688470        3.1371770508       -4.5615882228
 H        -6.2688689603       -0.0047922282       -3.5934742985
 H        -7.8836115612        0.5837685965       -4.1729797115
 H        -7.8291963496       -0.8203598037       -3.0364858617
 H        -9.1860563014        2.0849119105       -0.9380683291
 H        -9.7576570654        1.6034995637       -2.5211452784
 H        -9.4891736159        0.3993160218       -1.3306586855
 H        -4.4678133953        4.3569273992       -3.8133205740
 H        -5.7723190106        4.9259927271       -2.9159281137
 H        -2.3963768571        5.0984241416        1.0455111098
 H        -3.7298210337        5.5116173537        2.0815756293
 H        -3.5844135053        6.3025752338       -1.0172535128
 H        -4.4473073992        6.4408923294        0.5626133099
 H        -5.3948772764        6.5722445227       -0.9694493203
 H        -6.5261914058        3.0902158653       -0.3390954641
 H        -6.4154900778        4.4547877231        0.8010722547
 H        -7.0239060181        4.7105048004       -0.7370700188
 H        -2.2645002819        2.8249358867        2.4260294472
 H        -3.4198359654        3.4686576970        3.4505815183
 H         1.1847815182        4.2128329236        3.0892487940
 H         1.5507593680        4.8125702188        4.5758963116
 H         0.0723463246        5.9995817593        5.5417765167
 H        -0.1405679547        4.8840060684        6.8979383911
 H        -1.4810636119        5.7423519927        6.3466268341
 H        -2.9660847234        3.7770992609        5.6884827381
 H        -2.0663765220        2.2332749710        5.2529328514
 H        -1.7038624776        2.8993277815        6.8286304751
 H         3.6244805918        3.8759166918        3.8606916752
 H         2.9533485381        2.4679741738        4.8260462877
 H         4.5849665189        1.2631152785        0.2351970952
 H         6.0026436630        0.7767288879        1.0789806424
 H         5.3648263353        1.9820400542        4.4691936815
 H         5.5260806762        2.4645039173        2.7303846038
 H         6.2424861213        0.8560689243        3.5254014387
 H         2.4962754835        0.1284461579        4.3531322999
 H         3.9965921682       -0.9471083866        4.1869904269
 H         3.8565313076        0.3769692227        5.3805581370
 H         4.9032527340       -1.6602223743        0.1072800650
 H         6.5337344192       -0.9373530666       -0.3062980542
 H         4.5278643247       -3.1471658790       -3.5522012237
 H         5.8704659485       -3.3619001459       -4.6806623580
 H         6.0579152583       -0.7970030359       -5.0984783947
 H         5.3216011731        0.6224269337       -4.2980829198
 H         4.3633516260       -0.8136161760       -4.3685122612
 H         7.7365509134        0.3909967875       -1.9219824810
 H         8.3465766622       -0.6236558921       -3.1833058531
 H         7.3567592518        1.0269897258       -3.4093406910
 H         6.2017271106       -5.5826248128       -3.6966127234
 H         6.5587725366       -4.7330738294       -2.2242331577
 H         2.0370375026       -7.7297128038       -4.1998464959
 H         0.8323785752       -6.6790107483       -3.4469479319
 H         2.2029696626       -5.8266669336       -3.9865179977
 H         4.9145178826       -7.1060520675       -4.2369719769
 H         4.1524132247       -8.5865489425       -3.5677342327
 H         5.7975497242       -8.2405670002       -3.0542739006
 H         5.5574494768       -6.9014205092       -0.5773476289
 H         3.8706278066       -6.8654871886       -0.0932534379
 H         4.5723138540       -8.4564419170       -0.6363785336
 Na       -2.9596425676        1.1457754975       -0.2680501356
