155

 C         1.8026459582        1.6617050877       -1.2435735156
 C         0.3230364203        1.1926370807       -1.1533422975
 C         0.0045412553       -0.2221127404       -1.8613967377
 C        -1.0655872658       -0.8805432947       -1.0996584871
 C        -0.8492540216       -1.5515610437        0.2607928360
 C        -0.3530556137        0.1331592217       -3.2452812866
 C         1.2257868120       -1.2458731792       -1.8706149073
 O        -0.5729134639        1.8404386349       -0.7166756209
 O        -2.2322632161       -0.8513558772       -1.5506129262
 C        -1.9331094573       -2.6724000214        0.3784421451
 C        -3.2185703929       -1.9946467095        0.8005474304
 C        -4.5417623999       -2.8751062652        0.7782020826
 C        -5.6974029769       -2.0084185860        0.0945681813
 C        -6.1915458606       -0.7102910992        0.8748024242
 O        -3.2161757999       -0.8074904130        1.2743203633
 O        -6.1082054359       -2.2275414317       -1.0369442557
 C        -4.2619647804       -4.1708328244       -0.0208334402
 C        -5.0582936139       -3.2992776908        2.2197828166
 C        -7.3370184960        0.0143266768        0.1255728454
 C        -6.7828946503        0.8435405072       -1.0402624990
 C        -7.8051856376        1.1741420917       -2.3315659911
 C        -7.1992852304        2.6217531088       -2.8956989588
 C        -5.8198773919        2.7578887212       -3.4525235493
 C        -7.5926751460        0.0532264229       -3.4505459785
 C        -9.2445498742        1.3027862384       -1.8141450177
 O        -5.6006832225        1.0788980858       -1.0812844554
 O        -7.8868362168        3.5486403370       -2.6214795122
 C        -5.0370074735        4.0341364125       -3.0210412501
 C        -4.2762604869        3.8300742514       -1.7203670664
 C        -4.8475883351        4.4829552480       -0.4141138380
 C        -4.1593985133        3.8381806225        0.8095575263
 C        -3.1999185087        4.6542642334        1.7828884146
 O        -3.2490613091        3.1787765035       -1.7975565343
 O        -4.2612051220        2.6674127469        1.0908109703
 C        -4.5487736317        5.9843210440       -0.5365659275
 C        -6.4282327815        4.3340551533       -0.1230201932
 C        -2.6970779467        3.7965982929        2.9521594248
 C        -1.7757145768        4.6664633090        3.8241871415
 C        -1.1546202374        3.9380412672        5.0283766138
 C         0.0508049155        3.1129707914        4.3750394634
 C         1.2266849930        3.8194571916        3.7133134989
 C        -0.5869254125        4.9366401357        6.0680995248
 C        -2.1201819194        2.9994799697        5.6700533343
 O        -1.4681512404        5.8081348503        3.5433213970
 O        -0.0127850119        1.8942844196        4.5020295554
 C         2.6503827132        3.2277579934        4.1140138831
 C         3.1970947730        2.2179913279        2.9838771675
 C         4.0411877990        0.9727357910        3.2885937987
 C         4.3233363468        0.0337989889        1.9431645035
 C         5.2930016063        0.4327174695        0.8562413905
 O         2.6528407394        2.3464119938        1.9139448901
 O         3.5686622726       -0.8479171529        1.7079635706
 C         5.3735874931        1.3899499843        3.9122220401
 C         3.2581883796        0.1336782444        4.2743417627
 C         5.5336250702       -0.6720810855       -0.1877411418
 C         5.2936643069       -0.1756146667       -1.6340719106
 C         6.0827387418       -0.7974870016       -2.8754931647
 C         6.4277559248       -2.3982305986       -2.8317824463
 C         5.5056785624       -3.4345704383       -3.5039337679
 C         5.3526321687       -0.4805682154       -4.2183622470
 C         7.4466722093       -0.0485686606       -2.8429557285
 O         4.5082889674        0.7734047092       -1.7850533400
 O         7.4636460485       -2.7387869547       -2.2848542532
 C         5.6592954039       -4.8091285491       -2.9546496722
 C         4.4339145937       -5.3354637590       -2.2154822223
 C         4.2274911083       -6.9024091700       -2.0962650268
 C         2.6346856729       -7.1204979630       -2.1382245308
 C         1.9521943579       -6.7940427545       -3.5165413966
 O         3.5193822824       -4.4987088130       -1.9931570115
 O         1.9884651354       -7.4264227928       -1.1581955603
 C         4.8212163210       -7.7421831484       -3.3317857772
 C         4.8934318064       -7.4291846557       -0.8161017676
 H         1.9764610558        1.6475230411       -2.2466414750
 H         2.0508784426        2.6843122702       -0.8763848346
 H         2.5464570689        1.0765610400       -0.8127836952
 H         0.1298114940       -2.0650129991        0.3830410359
 H        -0.8738004298       -0.7288530369        0.9424394746
 H        -1.2041774806        0.8338691694       -3.2105128930
 H        -0.6713415532       -0.7454859277       -3.8088106984
 H         0.4568009224        0.6200067678       -3.7643839036
 H         1.6290252402       -1.5029438615       -0.8701806478
 H         0.7518492448       -2.1913030226       -2.1896420190
 H         1.9892685005       -1.0944609315       -2.5085708826
 H        -1.9414088879       -3.2512806995       -0.5977260796
 H        -1.4883533358       -3.4169690765        1.1084829876
 H        -6.6055925677       -1.1553598728        1.8143807204
 H        -5.3693126366        0.0558720920        1.1116977903
 H        -4.1951749166       -4.1845950161       -1.1016925882
 H        -5.1766035213       -4.7222936944        0.1168150014
 H        -3.3599304406       -4.5599984239        0.5554790466
 H        -5.8977754097       -4.0397085526        2.1502853992
 H        -4.1004225022       -3.6277243542        2.6580771138
 H        -5.3320618584       -2.5166756335        2.9396929830
 H        -7.9092894212        0.7600331506        0.7774760767
 H        -8.0376364091       -0.7351194585       -0.2362223733
 H        -5.2754645756        1.8873555601       -3.1053530949
 H        -5.8097522200        2.6296889504       -4.5416131219
 H        -7.0018976143        0.4501965311       -4.2148949473
 H        -8.5653391350       -0.1407718951       -3.8591581604
 H        -7.0814805437       -0.8583682855       -3.0644956122
 H        -9.3512950753        1.6528577096       -0.8040575976
 H        -9.8039343390        2.0231033387       -2.3382036080
 H        -9.8056846981        0.3544686283       -2.0099376752
 H        -4.3172728080        4.3488219196       -3.7958138400
 H        -5.6997681856        4.9359754933       -2.8642801141
 H        -2.3123942954        5.1171271662        1.2399455259
 H        -3.7200942004        5.5056786628        2.2647806536
 H        -3.6955739483        6.0896332762       -1.2036093828
 H        -4.4579769663        6.4721765329        0.4213817329
 H        -5.3854215536        6.4290130945       -1.0080040635
 H        -6.6977559698        3.2802780680       -0.0686204986
 H        -6.8984114460        4.9349634115        0.6952081763
 H        -6.9539087340        4.6928014519       -1.0396851441
 H        -2.1059039521        2.8972112794        2.5658162527
 H        -3.5034726912        3.2954630902        3.4839274183
 H         1.0463066729        3.9973363834        2.6442422485
 H         1.1362926389        4.8854979115        4.1299318975
 H        -0.4282117007        5.9199774323        5.6462364052
 H         0.3075461314        4.6233897869        6.5732840967
 H        -1.2900818306        5.0627641386        6.8928817864
 H        -2.8117408466        3.5478470557        6.2997327659
 H        -2.4811254817        2.2882917822        4.9509952979
 H        -1.5283079343        2.3582258276        6.2603506634
 H         3.3728215455        4.0525924094        4.2526277815
 H         2.5257903925        2.5596576668        4.9743452465
 H         4.8668890002        1.3261470739        0.2461553045
 H         6.3265956747        0.6827390997        1.2280427589
 H         5.3498900613        1.9133445902        4.8606648644
 H         6.0023140257        1.9227598072        3.2338111847
 H         5.8476117392        0.4331681943        4.2226668705
 H         2.3045203089       -0.1924598456        3.8421466243
 H         3.8354697491       -0.6172423266        4.6680664810
 H         3.0101487740        0.6903236192        5.1069236662
 H         4.9400452413       -1.5649962175       -0.1781196958
 H         6.6006983524       -1.0166175095       -0.1828684495
 H         4.4730745613       -3.1586753928       -3.3352979850
 H         5.6740136294       -3.4886856553       -4.6305092383
 H         6.0954164614       -0.4683180420       -4.9979548360
 H         4.7694011434        0.4395620157       -4.2557099486
 H         4.6282176508       -1.2310281823       -4.3692305333
 H         8.0837530514       -0.1815987844       -1.9314578740
 H         7.9301485965       -0.4106230367       -3.7096703769
 H         7.2407918245        0.9876570420       -2.7180565561
 H         6.0754357700       -5.5636085787       -3.5732417381
 H         6.4301208849       -4.7030034160       -2.0860119519
 H         2.5196933852       -7.2152333778       -4.2948820534
 H         0.9129883326       -7.2679359916       -3.5734601554
 H         1.7059873205       -5.7103355714       -3.5616589361
 H         4.4309623143       -7.4192380637       -4.3315054172
 H         4.6787540292       -8.8030036942       -3.1802391180
 H         5.9462299126       -7.5671090132       -3.2874717020
 H         5.9577978066       -7.3888214020       -0.8371703984
 H         4.5208026865       -6.8602439750        0.0325638326
 H         4.5298301084       -8.4322202913       -0.7436350196
 Na       -2.9374404820        1.1579863044       -0.2552872839
