155

 C         0.6321696305        3.4335271047       -0.1653610652
 C        -0.4817270026        2.5458186831       -0.7709512006
 C        -0.0491399529        1.3707048424       -1.6921018238
 C        -0.9403324022        0.1428266753       -1.2922711918
 C        -0.7264692787       -0.5308248807        0.0273283552
 C        -0.3729962569        1.8546101821       -3.2360529606
 C         1.3762534185        1.0863524950       -1.4876010840
 O        -1.6594748103        2.8254314584       -0.6212206133
 O        -1.7678964593       -0.2561158996       -2.1264674285
 C        -1.7144584334       -1.7670625078        0.2211236268
 C        -3.0981901331       -1.6290902616       -0.3391389926
 C        -3.6953824184       -2.9429072906       -0.8501873177
 C        -4.8975056715       -2.6448441499       -1.6310703148
 C        -6.1863082800       -1.9438859072       -1.0031446391
 O        -3.8349219168       -0.7298357061       -0.0623633868
 O        -4.8326582532       -2.6979953476       -2.8698225396
 C        -2.7155884603       -3.5878640462       -1.7831782619
 C        -4.0343954172       -3.8684720161        0.2848500094
 C        -7.0138030653       -1.3615685417       -2.1227067311
 C        -6.3411516165       -0.2049445097       -2.9510799069
 C        -7.2914091714        0.6138862036       -3.9109076654
 C        -7.8984729882        1.8068985332       -3.1052724692
 C        -7.5400193817        3.2798824870       -3.4892523229
 C        -6.2965614752        1.0348810875       -5.0215590016
 C        -8.4798446288       -0.3557857441       -4.4643948384
 O        -5.2341795634        0.1911291268       -2.7532138558
 O        -8.5322781023        1.5702545359       -2.0916544496
 C        -7.0768646453        4.0394649374       -2.2295779049
 C        -5.5204432518        3.7691747724       -1.9596280347
 C        -4.9651850014        4.4786072439       -0.6085487017
 C        -4.2937366721        3.4974744468        0.3850351104
 C        -3.6493393748        4.0642206481        1.6743655497
 O        -4.7522885026        3.1329898350       -2.6430320252
 O        -4.2879856472        2.3107294287        0.2228380158
 C        -3.9142621461        5.5305311114       -1.1166346563
 C        -6.0157626252        5.1743176520        0.2763915148
 C        -3.2506312325        2.8345106576        2.4893924573
 C        -2.3459058983        3.1155779623        3.7506196546
 C        -1.7451448521        1.8075281681        4.5511124877
 C        -0.3377337946        1.6275488298        3.8912182238
 C         0.8373096055        2.4960057921        4.2940185990
 C        -1.6312839104        2.1225572909        6.0101073313
 C        -2.6595280881        0.5267486502        4.3633461515
 O        -2.0997673201        4.1857288409        4.1776259475
 O        -0.1090081170        0.7356257734        3.0871656117
 C         2.2070945229        1.7793114155        4.7475198950
 C         3.2183162124        1.6248824222        3.6545058153
 C         4.4443352285        0.6195148090        4.0064635145
 C         5.4507480885        0.5175039875        2.7843247665
 C         5.9214766138        1.8602518365        1.9589820157
 O         3.0804425780        2.0887304975        2.5129949713
 O         6.0747660011       -0.4663316339        2.5548317348
 C         5.2493803745        1.2190306270        5.2525661076
 C         3.8504610773       -0.8432599579        4.2923853165
 C         6.5478567207        1.4342544350        0.5794807153
 C         5.7128087959        0.4582141572       -0.2667996811
 C         6.3324600657       -0.4474022385       -1.3268789079
 C         6.2653221648       -1.9395721648       -0.7880157587
 C         5.0935104115       -2.3104115126        0.1819377459
 C         5.4979248723       -0.3423806777       -2.6238064833
 C         7.8994896790       -0.1163231158       -1.5258032068
 O         4.4467371538        0.4040781649       -0.1087713590
 O         7.2526490228       -2.6018188496       -1.0364499226
 C         4.8160371499       -3.8345792450        0.1202958242
 C         4.3962634009       -4.2334564091       -1.3526136809
 C         4.0329046531       -5.7789207091       -1.5598725528
 C         2.7897302842       -6.2871393317       -0.6695790748
 C         1.6771177882       -7.1274244721       -1.1450053452
 O         4.3736061562       -3.5238501764       -2.3220905927
 O         2.7488241135       -5.9957861178        0.5145208310
 C         3.7846948492       -6.0955529244       -3.0735950838
 C         5.1759107457       -6.7010066927       -0.9927490165
 H         1.1522848140        3.8331250103       -0.9960600046
 H         0.2360547673        4.2896799535        0.4217340671
 H         1.2969630484        2.7701141499        0.4464877932
 H         0.3490526047       -0.8210759599        0.1705578153
 H        -0.9273180769        0.2527986033        0.6980116093
 H        -1.4177834156        2.0226526802       -3.4316341742
 H         0.0263972029        0.9950782508       -3.8513453052
 H         0.0704994623        2.8736862402       -3.4773379721
 H         1.7191932448        1.0490501580       -0.4667246810
 H         1.6654077110        0.2672401229       -2.1248860680
 H         1.9555279734        1.8647412865       -1.9093281940
 H        -1.2992679501       -2.6044650861       -0.3122629491
 H        -1.7523155480       -1.8687604947        1.2680159685
 H        -6.6510986349       -2.7165737271       -0.4425287540
 H        -5.8511643632       -1.1567809854       -0.2968388414
 H        -2.1354301377       -2.8390554574       -2.3495155107
 H        -3.2149507379       -4.1444068307       -2.5613377550
 H        -2.0131293345       -4.3136482097       -1.4353402543
 H        -4.6778960494       -4.6718069756        0.0083309288
 H        -3.1030081134       -4.2146797345        0.8806492250
 H        -4.7668913462       -3.2497746020        0.9272952219
 H        -8.0668685598       -1.1225347801       -1.7489368712
 H        -7.2274787589       -2.1179340195       -2.8352604685
 H        -6.7364792160        3.4457283402       -4.3417366016
 H        -8.4367388106        3.7728644410       -3.8234779521
 H        -5.5050540979        1.5924515936       -4.5859396312
 H        -6.8386112429        1.7808725378       -5.6567258987
 H        -5.8249030163        0.2218725347       -5.5432545644
 H        -9.2077228827       -0.7445340260       -3.7046427962
 H        -9.0281618831        0.3315352628       -5.1626772811
 H        -7.9963549382       -1.0500705528       -5.1013848507
 H        -7.1507963234        5.1318693416       -2.3652344270
 H        -7.6005931546        3.6968258481       -1.3278068636
 H        -2.8749776647        4.7798181572        1.2661213696
 H        -4.3589398434        4.7225557538        2.1947321638
 H        -3.2709209559        4.9981503585       -1.8501777795
 H        -3.1840826604        5.9303272672       -0.3648452765
 H        -4.3272481827        6.4208429862       -1.5306750069
 H        -6.7335572233        4.4189424570        0.5904676783
 H        -5.4185440514        5.6164004453        1.0728246677
 H        -6.4953991223        5.9906953202       -0.1862581250
 H        -2.5391124076        2.2095786788        1.9440893080
 H        -4.1483717427        2.3213328708        2.7538694162
 H         1.1553368872        3.0433579321        3.3628160706
 H         0.6027220478        3.4096084141        4.9002604701
 H        -1.1146291265        3.0541017009        6.2887969945
 H        -1.1978260618        1.3169396262        6.5851949230
 H        -2.6747946189        2.2294299108        6.4077420525
 H        -3.6659588328        0.6739178073        4.8386524546
 H        -2.9118497453        0.3210110281        3.3048140706
 H        -2.1045368271       -0.4011201010        4.6801528147
 H         2.5547578446        2.4470406965        5.5696132735
 H         2.0412251769        0.8774032932        5.3558553491
 H         5.0995843544        2.6115517162        1.8255698969
 H         6.5197209508        2.4101014960        2.7052198732
 H         4.5729327733        1.3163369272        6.1303576821
 H         5.6264504274        2.2620773741        5.0194804537
 H         6.1875462145        0.5828240536        5.2784243550
 H         3.3829792870       -1.1568620369        3.3256770662
 H         4.6475971276       -1.5280792366        4.6843593813
 H         3.0211698384       -0.8521361272        5.0684821147
 H         7.5511226509        1.0452940702        0.7988323928
 H         6.7597583809        2.2925402730       -0.0221914878
 H         5.4188976669       -2.0933844300        1.2520399122
 H         4.1885950348       -1.8031181683       -0.0637293239
 H         5.5654042927       -1.2300867261       -3.2266452250
 H         5.7238692697        0.5818297440       -3.1828246937
 H         4.4346653229       -0.2555148439       -2.3911305248
 H         8.3268687630       -0.4626728280       -0.6414882544
 H         8.2626705207       -0.7985363802       -2.2963162880
 H         8.2151860411        0.8974280921       -1.8647597704
 H         5.6565437718       -4.3909410814        0.2987294377
 H         3.9711488236       -4.2048324514        0.8518933139
 H         1.4592804915       -7.1047756098       -2.2499587634
 H         1.6996556209       -8.1307136054       -0.7292495187
 H         0.7721324091       -6.7509109696       -0.6901245276
 H         2.9212959582       -5.4770053907       -3.4317052910
 H         3.2687260115       -7.1183916486       -3.2212261226
 H         4.5839108174       -6.0423173292       -3.7861412900
 H         6.1251923851       -6.2343919299       -1.3460155372
 H         5.2810243029       -6.6168741931        0.0680629251
 H         5.0095181202       -7.6735624642       -1.3544824600
 Na       -3.4539972378        1.4585892115       -1.9690837738
