155

 C         0.5161141644        3.3201678995        0.3721502333
 C        -0.3826408373        2.6597864436       -0.7226700326
 C         0.2028917583        1.6221805142       -1.7758162315
 C        -0.6919091451        0.2515880078       -1.5119317584
 C        -0.7934179388       -0.2953892806       -0.1029403095
 C        -0.0852208556        2.1742436265       -3.1821341277
 C         1.7396626200        1.2944588184       -1.5662366423
 O        -1.5930407058        2.9095211654       -0.7867585432
 O        -1.3809337809       -0.2438450490       -2.4212275506
 C        -1.5158165996       -1.6950533491       -0.1290422409
 C        -2.9439447996       -1.6701489960       -0.5595977049
 C        -3.5062412793       -3.0228286425       -1.0360633205
 C        -4.7928294204       -2.6010364458       -1.9669863914
 C        -6.0218265789       -1.9108437085       -1.2920736347
 O        -3.5797076336       -0.5836290227       -0.5316724342
 O        -4.8795859225       -2.8981415547       -3.1281521301
 C        -2.6884198454       -3.9817575961       -1.8725551337
 C        -4.1529680443       -3.6393520339        0.3797256666
 C        -6.9054529642       -1.3013240406       -2.3377480563
 C        -6.3186820963       -0.0707723643       -3.0482058769
 C        -7.1697821216        0.6443184673       -4.1063491891
 C        -7.9281295132        1.7729607447       -3.3518767745
 C        -7.8268798892        3.2654410926       -3.4426250787
 C        -6.0465419917        1.2527504532       -5.0686900704
 C        -8.1402934616       -0.2688162779       -4.8573404822
 O        -5.1164359619        0.2330839081       -2.9673253110
 O        -8.6703535056        1.3647023516       -2.4482404074
 C        -7.5106640107        3.9510144435       -2.0836110324
 C        -5.9474515256        3.6744778634       -1.8055488192
 C        -5.2099289662        4.4748801102       -0.5508906691
 C        -4.6620280919        3.4139271052        0.4241072957
 C        -3.9278679559        3.7893167354        1.6924841854
 O        -5.2938741819        2.9999537429       -2.5601256400
 O        -4.6406227183        2.2097508976        0.1325518429
 C        -3.9606769222        5.2478912382       -1.0969754347
 C        -6.1346141121        5.3997982746        0.3598701140
 C        -3.3797014039        2.5225818634        2.3302970639
 C        -2.5072540465        2.7654104565        3.5965487292
 C        -1.9579006339        1.5739239823        4.5418937705
 C        -0.4937010250        1.3761704903        4.0475998701
 C         0.8281511624        2.0311885952        4.5210841521
 C        -1.8683450277        1.9800103118        6.0505420223
 C        -2.8498981747        0.3112122179        4.4263272967
 O        -1.9826880809        3.8371207054        3.7682566194
 O        -0.3667064093        0.4984569439        3.1789661929
 C         1.9252293420        0.9629264381        4.6632134830
 C         3.2325545423        1.5519695100        3.9275776547
 C         4.6463453500        0.9749869983        4.2108099791
 C         5.4418616400        0.8556201439        2.8349292827
 C         5.7162216742        2.0989973042        1.9356011142
 O         3.0735644553        2.3869363194        3.1036361665
 O         5.6977753340       -0.2547366355        2.4004732849
 C         5.3390156855        2.0794988287        5.1296801952
 C         4.6186700579       -0.4239976112        4.9000160615
 C         6.4705696270        1.5494722677        0.6936336988
 C         5.7009973120        0.5380588685       -0.1617000351
 C         6.4819397557       -0.3858493046       -1.0440394371
 C         6.5658298934       -1.9403460095       -0.5052232722
 C         5.2538223381       -2.4501296883        0.2203651726
 C         5.7425350921       -0.5790532848       -2.3976470367
 C         7.9881371587        0.0268294878       -1.2435898981
 O         4.4216740739        0.4692297868       -0.2139535708
 O         7.5876171024       -2.5173050273       -0.7222624468
 C         5.0231861225       -3.9415950122        0.2098845117
 C         4.5017567361       -4.3765623514       -1.2501875534
 C         3.9722481489       -5.9129211827       -1.4826597706
 C         2.6991581950       -6.0734667090       -0.5657167802
 C         1.7956844634       -7.2257203198       -0.9108684582
 O         4.4841013843       -3.6551575635       -2.2007876952
 O         2.5057137897       -5.2970448247        0.3465240078
 C         3.5563802987       -6.0058619791       -3.0205232067
 C         4.9439005647       -7.0424531605       -1.1400744284
 H         1.3932667906        3.7944708940       -0.1404402024
 H        -0.0335925704        4.0010662795        0.9019546372
 H         0.8984205978        2.5241981948        0.9221198782
 H         0.2672584802       -0.2989334061        0.2721338494
 H        -1.2759169291        0.4617287139        0.4693953998
 H        -1.0386304309        2.5763008538       -3.0902638335
 H        -0.2490383938        1.4051505515       -3.9367466196
 H         0.6196980132        3.0129910071       -3.4619240331
 H         2.0395559327        1.2228101674       -0.5135212698
 H         2.0227555616        0.3916059070       -2.1276453624
 H         2.3353598864        2.0374829207       -1.8933001753
 H        -1.0195598610       -2.1905442544       -0.9664069791
 H        -1.4987948960       -2.3055230651        0.7410813896
 H        -6.6235893305       -2.6755864993       -0.7384791786
 H        -5.5387087673       -1.2032204107       -0.5317512981
 H        -2.1666840926       -3.5599808706       -2.6660568593
 H        -3.3904707314       -4.6252504833       -2.3030166902
 H        -1.9540000842       -4.5713848422       -1.3450564824
 H        -5.0001286961       -4.2512624399        0.2189504413
 H        -3.2850084213       -4.0503045457        0.8693017965
 H        -4.5247934695       -2.9456623305        1.1129619926
 H        -7.9547274500       -1.1841177550       -1.8568369236
 H        -7.1445855982       -2.0824683548       -3.0523663983
 H        -7.0693159743        3.6427249497       -4.2923636467
 H        -8.8234141268        3.6058920148       -3.7065188993
 H        -5.4118576826        1.7890748542       -4.5101059285
 H        -6.4048741245        1.9274200871       -5.8434299526
 H        -5.4665716731        0.4006817743       -5.5401337533
 H        -8.9400600462       -0.5433230525       -4.1922474262
 H        -8.6141913757        0.2506107957       -5.7376789691
 H        -7.4601486275       -1.0230063510       -5.1750742691
 H        -7.5192480025        5.0463550222       -2.2545574074
 H        -8.1826508034        3.5236334123       -1.3019690825
 H        -3.0539012111        4.5170955361        1.4713548753
 H        -4.7445110278        4.2292981145        2.3416290532
 H        -3.1015475247        4.6345979412       -1.3283105878
 H        -3.6618642555        6.1088412534       -0.4948033299
 H        -4.1707855506        5.6193181110       -2.0642256111
 H        -7.1450783982        5.0176461762        0.5056331182
 H        -5.5251824954        5.5883457919        1.2531535491
 H        -6.3037597249        6.2994544051       -0.1413573793
 H        -2.7539985564        1.9276903716        1.7005334312
 H        -4.1596114878        1.8858348111        2.6482018846
 H         1.1432171013        2.9067263492        3.9001346487
 H         0.5834081870        2.4200234909        5.5240379223
 H        -1.6285818545        3.0039704890        6.2348732638
 H        -1.0594216734        1.3741059973        6.5268540269
 H        -2.7494868431        1.7645766772        6.6372090608
 H        -3.8774621252        0.4932655317        4.7059280302
 H        -2.8088107772       -0.0544936716        3.3584460349
 H        -2.6459656501       -0.5579150804        5.0972255313
 H         2.1298385196        0.7366049969        5.7486679967
 H         1.5972345109       -0.0483772997        4.2939718975
 H         4.6891180009        2.5904805631        1.7661597014
 H         6.2981535345        2.8949218555        2.5525068514
 H         4.8873909345        1.9838135368        6.1698411231
 H         5.3678857108        3.1728556539        4.6862313158
 H         6.4194209311        1.7774335922        5.3226492227
 H         3.8597715463       -1.1430930679        4.4155988842
 H         5.5660757027       -0.9471343565        4.8774470182
 H         4.4104512628       -0.2846941919        5.9619308255
 H         7.2996187120        0.9931993352        1.1066676016
 H         7.0311630815        2.2784174818        0.1989362126
 H         5.2387250960       -2.0353178037        1.2620032208
 H         4.4511361424       -1.9610169795       -0.2827870950
 H         6.4352238442       -1.0520606727       -3.0569817208
 H         5.5305910649        0.3651577108       -2.8921853400
 H         4.7785352387       -1.0350198238       -2.3779317438
 H         8.6451035739       -0.0996451140       -0.4208018519
 H         8.2985764462       -0.6150134661       -2.0914897208
 H         8.0976348614        1.0660790841       -1.5039591113
 H         5.9431609626       -4.4015304326        0.3176249044
 H         4.3329747451       -4.3427476371        1.0273084823
 H         1.7331602356       -7.4431087007       -1.9710478932
 H         2.1732932482       -8.1627163980       -0.4829068795
 H         0.7977215292       -7.0940779384       -0.6425773275
 H         2.7090372293       -5.3756453299       -3.1973754663
 H         3.2900385083       -7.0874114124       -3.1621634505
 H         4.2274475825       -5.7442575423       -3.7840350063
 H         5.6206134750       -6.9378792838       -2.0307402906
 H         5.4861460607       -6.8532203997       -0.2359837030
 H         4.4839710159       -7.9999036537       -1.1412056092
 Na       -3.4350387895        1.5164147400       -1.6375059810
