155

 C         0.4695686841        3.1977697893        0.4478464510
 C        -0.4563023990        2.6800316737       -0.6813325290
 C         0.1787096100        1.7114033928       -1.6811469792
 C        -0.5179156502        0.3115580044       -1.6417178247
 C        -0.7151987295       -0.4254100367       -0.2824959774
 C         0.0366461041        2.1285539647       -3.2128983298
 C         1.8042053751        1.4156000508       -1.4582343332
 O        -1.6629554682        2.8244029826       -0.7000126171
 O        -0.9892413806       -0.1013750344       -2.6495504988
 C        -1.2984907223       -1.7509561283       -0.5271739713
 C        -2.7715123380       -1.6366186475       -0.7449576004
 C        -3.5451588408       -3.0200079256       -1.0107916065
 C        -4.7864919658       -2.6448013063       -1.9319324164
 C        -6.0964220102       -1.8840156996       -1.4097255692
 O        -3.3708966028       -0.6198307508       -0.5919750371
 O        -4.8129079016       -3.0261307418       -3.0925851439
 C        -2.6559021762       -4.0058617735       -1.8256305529
 C        -3.8961544998       -3.4875525298        0.4500017228
 C        -6.9470858001       -1.2335788253       -2.6258878821
 C        -6.1497071997       -0.1040426830       -3.1708935002
 C        -7.0081547181        0.7865374011       -4.2317177042
 C        -7.8851215717        1.7542757629       -3.3429706458
 C        -7.7219961420        3.2888597271       -3.3473798390
 C        -6.1248452659        1.5472523209       -5.2423448590
 C        -8.0335879594       -0.1083332196       -5.0446786650
 O        -4.9927482472        0.0470995156       -2.8553662326
 O        -8.7730697898        1.3433297136       -2.6746491284
 C        -7.4666084925        3.9461282521       -1.9972268612
 C        -6.0106822731        3.7218935262       -1.5969991530
 C        -5.2912626819        4.4763689885       -0.4437890049
 C        -4.8316709457        3.2124445634        0.5056338911
 C        -4.0070656628        3.5425739120        1.7596285634
 O        -5.2866654256        2.9934970531       -2.2867003953
 O        -5.1009617263        2.0917225091        0.1925032237
 C        -4.1243066470        5.2466948849       -1.1182201532
 C        -6.2669074245        5.5900288414        0.2076518518
 C        -3.5126586867        2.2483179678        2.4164556657
 C        -2.3765029737        2.6091621943        3.5077805564
 C        -1.9407081799        1.4906999977        4.5690644004
 C        -0.5259291252        1.0459908873        3.9898902491
 C         0.7185195570        1.5098450808        4.8004877597
 C        -2.1684750197        2.1634426241        5.9207100416
 C        -2.8953792295        0.2264244230        4.4871426521
 O        -1.9787813195        3.7399578701        3.6489725418
 O        -0.5692008310        0.3486184632        3.0127206845
 C         1.9892656185        0.7604669581        4.4442867304
 C         3.1155246836        1.6332684000        4.0209514668
 C         4.6373569665        1.2685900074        4.3258925175
 C         5.2604339910        0.8700896194        2.8923690061
 C         5.7432420247        2.0744593496        2.0042394652
 O         3.0438402211        2.6639893703        3.2892680708
 O         5.3779075431       -0.3051070268        2.6564629014
 C         5.3245233492        2.3485365738        5.1009302060
 C         4.7992390551        0.0308583410        5.1885690754
 C         6.4307282404        1.6158388905        0.7184022325
 C         5.7228201461        0.5492687030       -0.1230321317
 C         6.5510018733       -0.4903097170       -1.0784308015
 C         6.6295506054       -2.0183938236       -0.4554928758
 C         5.4001097186       -2.5543052760        0.2358081322
 C         5.8734971004       -0.7510501529       -2.4303585487
 C         7.9744349336        0.1224947326       -1.3209372984
 O         4.5537870114        0.5985994109       -0.2453667213
 O         7.7144284796       -2.5852739013       -0.3815603905
 C         5.2104888776       -4.0482957555       -0.0166423907
 C         4.5459606833       -4.3137415522       -1.3609455144
 C         3.8937906465       -5.8193296311       -1.5079915751
 C         2.5683319766       -5.9979544814       -0.5463667160
 C         1.8103446577       -7.3590111432       -0.5599347526
 O         4.5100833934       -3.5069363309       -2.2693733841
 O         2.2361808694       -5.0743300093        0.1838745134
 C         3.5357109337       -6.0124227175       -2.9721222066
 C         5.0319011539       -6.8799400649       -1.0148759686
 H         1.3563103200        3.5614405168       -0.0073923431
 H        -0.0620894868        3.9533007477        1.1412375648
 H         0.8133924177        2.1791071849        0.8823189571
 H         0.2476859768       -0.6066846586        0.2261306653
 H        -1.2477049919        0.2312879790        0.4293344360
 H        -1.0793787121        1.9746195058       -3.4799917417
 H         0.4825911996        1.3650957195       -3.8765975305
 H         0.3977786651        3.1227475431       -3.4123402839
 H         2.1892223785        1.1682275501       -0.4637882165
 H         2.0635136465        0.5550604743       -2.0429249015
 H         2.3926142705        2.3406096896       -1.8523511628
 H        -0.8029086451       -2.2267059259       -1.3918020746
 H        -1.1850045543       -2.4516611221        0.3749313068
 H        -6.6575143562       -2.6510806809       -0.9276430920
 H        -5.7414984254       -1.1954293741       -0.7170550487
 H        -2.3561045361       -3.4678304923       -2.7964964517
 H        -3.1424518603       -4.9768415709       -2.1328429257
 H        -1.7042932714       -4.1888613124       -1.3289009793
 H        -4.9663417862       -3.8005870326        0.4064988305
 H        -3.1470128297       -4.1859616773        0.8653059194
 H        -3.8930931747       -2.6508249584        1.2359362019
 H        -7.9208914147       -0.9614189873       -2.3868636868
 H        -7.1319607108       -2.0047307465       -3.4085402799
 H        -6.9505351528        3.6165935449       -3.9828498234
 H        -8.6299554061        3.7103375388       -3.7545217994
 H        -5.4602471044        2.3955702000       -4.8031539990
 H        -6.7977089773        2.0008279162       -6.0266912876
 H        -5.5493775875        0.8529963439       -5.8033302091
 H        -8.7623304380       -0.4812218852       -4.2738830804
 H        -8.5960414561        0.5990151906       -5.6007667068
 H        -7.5124935110       -0.8046581320       -5.7282136944
 H        -7.5034294664        5.0137805023       -2.1733552927
 H        -8.0697522310        3.5678893029       -1.2045336332
 H        -3.2228721788        4.1899763078        1.5194809862
 H        -4.6992178532        3.9614915890        2.4366586231
 H        -3.5533012559        4.5294935345       -1.7335350865
 H        -3.4079369203        5.6611407675       -0.4186877292
 H        -4.3651036344        5.9685420619       -1.9138997135
 H        -7.1093607443        5.1700495997        0.7746422817
 H        -5.7384398547        6.2036249741        0.9202224156
 H        -6.7335234372        6.1910087348       -0.6079517472
 H        -3.1692215710        1.4139284464        1.7413237840
 H        -4.3346185695        1.7534158788        3.0204534325
 H         0.7612463470        2.5936780242        4.6218772145
 H         0.5160585784        1.4013130807        5.8824619704
 H        -1.9186162063        3.2589681791        5.8345042529
 H        -1.6133532670        1.7793782398        6.7429574607
 H        -3.2465358778        2.1462446450        6.2228464321
 H        -3.9358916477        0.2954525202        4.8845571101
 H        -2.8777227118       -0.2143930147        3.5352007629
 H        -2.5832559254       -0.5196154711        5.2052208257
 H         2.3382071427        0.2015475151        5.2984471575
 H         1.9440170282       -0.0141400430        3.6530487105
 H         4.8512990387        2.6061241221        1.8002551129
 H         6.4024802650        2.6943951373        2.5419784283
 H         4.8449684519        2.4750450925        6.0581521314
 H         5.3305424782        3.2455416284        4.5629238464
 H         6.3445680404        2.0620433116        5.3522799503
 H         4.3150608209       -0.8516425975        4.8544414907
 H         5.8873555120       -0.2897867565        5.2379653345
 H         4.5294193430        0.2864266122        6.2543512398
 H         7.5111979823        1.5102395340        0.8994815824
 H         6.5263881787        2.5503686426        0.0779729984
 H         5.6056096247       -2.3238219953        1.2926583189
 H         4.4784511092       -1.9371119286        0.0325161122
 H         6.1943500653       -1.6707424668       -2.9228180402
 H         6.1400209118       -0.0442010728       -3.2282906461
 H         4.8003933473       -0.6801712766       -2.2723129540
 H         8.6090859488        0.1531826261       -0.4348503476
 H         8.4697890141       -0.4497944785       -2.0457746512
 H         7.9526051826        1.1961007376       -1.6175588548
 H         6.2508668214       -4.5492715634        0.0514624029
 H         4.5808811548       -4.5589366026        0.6768976019
 H         1.4379084934       -7.6970041041       -1.5507774206
 H         2.4565075690       -8.1893072612       -0.2976929709
 H         0.8553418259       -7.3498114040        0.0560764298
 H         3.0640164653       -5.0892880519       -3.4208142004
 H         3.0851841817       -6.9666772248       -3.2212439949
 H         4.5110849044       -5.9825727087       -3.5323837205
 H         5.9225014230       -6.9133632165       -1.5743997299
 H         5.0665974188       -6.8410671612        0.0821929885
 H         4.4752702884       -7.8141876319       -1.2096687468
 Na       -3.5809044568        1.4703538409       -1.6875853953
