155

 C         0.1901934452        3.3123150765        0.5267226283
 C        -0.5022923620        2.5264489257       -0.6645411358
 C         0.2998434105        1.7181534136       -1.7288388209
 C        -0.3927966947        0.2743488404       -1.8647186172
 C        -0.2332415226       -0.5423731877       -0.5523865287
 C         0.1417386864        2.6839054855       -3.0166087181
 C         1.7725677088        1.6254607245       -1.4241877260
 O        -1.7395769031        2.5736308757       -0.7748989993
 O        -0.9492240689       -0.1945574465       -2.8511146636
 C        -1.0895467166       -1.8323188901       -0.6568434348
 C        -2.6275084462       -1.6721682719       -0.8752840040
 C        -3.5623962980       -2.9575367213       -1.0190008765
 C        -4.8287194432       -2.7255153553       -2.0286498557
 C        -6.0601872005       -1.9257640767       -1.4927835290
 O        -3.1147697391       -0.5483704863       -0.6423982703
 O        -4.8117221041       -3.2041942504       -3.1152227091
 C        -2.7393067151       -4.2207415028       -1.6563068346
 C        -4.1204395140       -3.5033105894        0.2697104563
 C        -6.7727462753       -1.2391524433       -2.5615803751
 C        -6.1047688810       -0.0016677079       -3.3322500951
 C        -6.9476804005        0.8952477407       -4.3668447627
 C        -7.9370704690        1.7615190586       -3.4027121236
 C        -7.8834169566        3.2716719705       -3.4766929801
 C        -5.9424064310        1.6919328757       -5.1657328734
 C        -7.9110083563        0.0456211386       -5.2497747305
 O        -4.9279346810        0.2775254272       -3.1839096151
 O        -8.7368631050        1.1923514441       -2.6482436377
 C        -7.4364808702        3.9343886282       -2.1082190381
 C        -5.9341225886        3.7099208076       -1.7267706059
 C        -5.3215839983        4.3880949941       -0.4575429481
 C        -4.9600794679        3.2092376103        0.5404868692
 C        -4.1307845635        3.5625934830        1.8138498640
 O        -5.3466059242        2.8881710890       -2.3474629821
 O        -5.5057662411        2.1164097609        0.4737151501
 C        -3.9776090332        5.1449024373       -0.7714250562
 C        -6.2985376872        5.3043359067        0.3872390062
 C        -3.6988082856        2.2640402421        2.4550916014
 C        -2.5265057314        2.4600887147        3.4099701245
 C        -2.0753624124        1.3566615709        4.5711692133
 C        -0.6291750334        0.8969883196        4.0033117510
 C         0.6476624370        1.1774778857        4.9038368926
 C        -1.9134427678        2.1257745918        5.9412032945
 C        -2.9901692861        0.1058274627        4.5979091344
 O        -1.9434762310        3.5348697041        3.3177925614
 O        -0.4988859885        0.2488077886        2.9694054142
 C         1.8947854608        0.6182444808        4.1958431906
 C         3.1011375757        1.7290860279        4.1037996293
 C         4.6059209589        1.4498352976        4.3713085024
 C         5.2380967570        0.8642508831        3.0306155755
 C         5.6213929221        1.9116955902        1.9696439526
 O         2.7256692733        2.8099195568        3.7542173885
 O         5.2419435261       -0.3302973366        2.7357743572
 C         5.2903037591        2.7688250546        4.6709993823
 C         4.7575734313        0.3872127537        5.5084845526
 C         6.5581529503        1.3148099296        0.8733025618
 C         5.7732356905        0.4708006687       -0.1077285383
 C         6.6390638352       -0.4359250113       -0.9892617901
 C         6.7225181964       -1.7698063664       -0.3082050920
 C         5.4162923406       -2.4815483675        0.2212231259
 C         5.8658550991       -0.6815133255       -2.2679148511
 C         8.0983238451       -0.0724833814       -1.3442872801
 O         4.5088077903        0.5338276089       -0.2463744436
 O         7.7393390790       -2.3696836735       -0.0869036828
 C         5.4057873865       -3.9636994085       -0.0656529904
 C         4.5475139984       -4.3277758032       -1.3472262351
 C         3.9167744572       -5.7708600298       -1.4237575092
 C         2.5364142243       -5.7905355663       -0.5449781347
 C         2.0607276846       -7.3184792431       -0.3651788607
 O         4.3543943752       -3.5298941368       -2.2605918811
 O         2.0239216587       -4.7712722462       -0.1339792831
 C         3.4710084217       -6.0480256988       -2.9029802986
 C         4.9611052814       -6.8300596112       -0.9157850246
 H         1.0755234874        3.8932449065        0.1793054017
 H        -0.5536760591        3.9687686768        0.8190893969
 H         0.4968277053        2.6387213842        1.2139871208
 H         0.7769970227       -0.8203848388       -0.2370639697
 H        -0.5567543673        0.0645772020        0.3335823483
 H        -0.8099801648        2.7963806409       -3.4364326750
 H         0.7782377621        2.3171220248       -3.8027148445
 H         0.6165916725        3.6185928024       -2.6947283229
 H         1.8183577822        0.8358122449       -0.6744541949
 H         2.4276796281        1.1758548849       -2.2000219718
 H         2.1594644406        2.5335815455       -1.0399867631
 H        -0.7819823418       -2.6013016189       -1.3912906617
 H        -1.0458100739       -2.3492824977        0.2921587872
 H        -6.6515181515       -2.7629568890       -1.0178277117
 H        -5.7826015585       -1.1158059682       -0.7365837238
 H        -2.6783687975       -4.1655881793       -2.7119255173
 H        -3.3882596636       -5.0565674404       -1.4427406897
 H        -1.7006951970       -4.4715042364       -1.2831290297
 H        -4.6834685454       -4.4636550778        0.0880751319
 H        -3.3657713749       -3.6504035350        1.0465646390
 H        -4.7139312825       -2.7363331274        0.6551524581
 H        -7.7687050993       -0.9542569359       -2.0814153981
 H        -7.1043831474       -1.8723368996       -3.3527853501
 H        -7.2889081041        3.6800999324       -4.3017179103
 H        -8.9468782077        3.6549132658       -3.6626440866
 H        -5.1971575247        2.0224785381       -4.4761608298
 H        -6.3844935381        2.4779323519       -5.6451490993
 H        -5.5538183115        1.1037918690       -6.0193054777
 H        -8.6361437045       -0.4100665253       -4.6402126394
 H        -8.3183250455        0.7680633640       -5.9915192986
 H        -7.2878826540       -0.6365987204       -5.8088033751
 H        -7.5736650078        5.0151671336       -2.1693348626
 H        -8.0095326791        3.4556047040       -1.2554026561
 H        -3.1850108835        4.0558188704        1.4280759527
 H        -4.7704581214        4.1309923128        2.5488857890
 H        -3.3660658181        4.6662055554       -1.5281900507
 H        -3.3252356117        5.1979960975        0.1036627369
 H        -4.0923634975        6.1156269725       -1.2268664304
 H        -6.9961093956        4.5915481739        0.8945019001
 H        -5.8312794189        5.7398172610        1.3081509474
 H        -6.8493680658        6.0938964167       -0.1623295403
 H        -3.4188464418        1.5642785806        1.7036066846
 H        -4.4527170671        1.7435531950        2.9898062161
 H         0.7057324364        2.2697547008        5.0728369260
 H         0.4678133234        0.6259331204        5.8257860143
 H        -1.0004191049        2.6358379416        6.0574079149
 H        -1.9527353784        1.4249070491        6.8242869198
 H        -2.6711511475        2.8347482659        6.0761546924
 H        -3.9889097884        0.4305112971        4.5813798425
 H        -2.9383338002       -0.5970393472        3.7190543244
 H        -3.0233283746       -0.5265569481        5.4725174576
 H         2.1410180852       -0.4319979649        4.4956265089
 H         1.6989614716        0.5966286026        3.1094598049
 H         4.6345779795        2.1078518301        1.4187387335
 H         6.1600012023        2.8222142462        2.4507957327
 H         5.1125707405        3.1734432326        5.6591374296
 H         4.7946050071        3.5108114786        4.0616006120
 H         6.3478710319        2.7185917505        4.6075636426
 H         4.9095800790       -0.6154168607        5.1249406396
 H         5.6262688346        0.5584256429        6.0348513170
 H         3.9571010340        0.3697202469        6.1564072847
 H         7.4198132125        0.7899612763        1.3014458494
 H         7.0518234760        2.1032635543        0.3248419030
 H         5.3564123875       -2.2571757799        1.2884261219
 H         4.4854983383       -2.0813212044       -0.1071353044
 H         6.2868210619       -1.5985336368       -2.7171139336
 H         5.9086141746       -0.0143001716       -3.1211559889
 H         4.8225451816       -0.8807971943       -1.9593351728
 H         8.6624337246        0.2566414221       -0.4352671282
 H         8.6980013196       -0.9756508351       -1.7204908598
 H         8.2112596775        0.7658127972       -2.0023667585
 H         6.3772237889       -4.3126897514       -0.2601606857
 H         5.0320152683       -4.5595953251        0.8007400036
 H         1.5291994370       -7.7558330707       -1.1798255499
 H         2.9643271728       -7.9530096236       -0.4320555032
 H         1.4448113084       -7.5252871724        0.4693055921
 H         2.8305493329       -5.2716039605       -3.1967413477
 H         2.9366546605       -6.9921896806       -2.8288326351
 H         4.2257137871       -6.1913852487       -3.6667343440
 H         5.8646443932       -6.3324305345       -1.3291251157
 H         4.9040684507       -6.9254448802        0.1552046175
 H         4.9555196389       -7.7989728067       -1.4037762705
 Na       -3.4260452418        1.4653374176       -1.7131894744
