155

 C        -0.1128061918        2.6773175851        0.9742964045
 C        -0.7381259653        2.3467381749       -0.3706824685
 C         0.2725145275        1.9315760607       -1.5622049049
 C        -0.4458104909        0.8197066936       -2.3754865363
 C         0.0043831778       -0.6720548887       -2.5864222874
 C         0.4968066590        3.2386195141       -2.4845505675
 C         1.6601919994        1.4151258383       -1.0494721258
 O        -1.9088403578        2.6206320104       -0.6390186639
 O        -1.4449957812        1.2219275607       -2.9820863170
 C        -1.3121086799       -1.5049251150       -2.8092872548
 C        -2.1180303791       -1.6402787802       -1.4245542332
 C        -3.1482709230       -2.7382895991       -1.1307459268
 C        -4.1757652293       -2.4699645607       -2.3937429459
 C        -5.4888120683       -1.7862205655       -2.1195885947
 O        -1.8243962959       -0.7662920654       -0.5805188776
 O        -3.9445919119       -3.0053014356       -3.4319692953
 C        -2.5827740292       -4.1026885701       -1.2489628235
 C        -3.8574872404       -2.5276326556        0.2245123596
 C        -6.1877412148       -1.3270213653       -3.5121322945
 C        -5.6732001553        0.0129590542       -3.9598365505
 C        -6.4745689181        0.9521447313       -5.0031221504
 C        -7.3389414735        1.8915252465       -3.9806192285
 C        -6.9841065284        3.3516555064       -3.8656948852
 C        -5.5475034679        1.7978188752       -5.9374966271
 C        -7.4653739836        0.1648105178       -5.8933474454
 O        -4.5245865315        0.3665185509       -3.6042418903
 O        -8.2194735744        1.3954618944       -3.3273674852
 C        -7.0410531390        3.8442537529       -2.4328234787
 C        -5.8725261851        3.1971938143       -1.6231559742
 C        -5.6847291565        3.6793518506       -0.0658812656
 C        -4.9345533862        2.4939788219        0.6660222492
 C        -4.4810742512        2.6875802380        2.1729482191
 O        -5.0888146387        2.4502455034       -2.2667494658
 O        -5.0535516260        1.3100234894        0.2958404128
 C        -4.8711856528        4.9618079621       -0.1501908291
 C        -7.0185512939        3.7242348281        0.6274307373
 C        -3.7192056557        1.3937562449        2.6067307183
 C        -2.7134524073        1.7406415426        3.7480872116
 C        -2.0794963014        0.5264850357        4.5763621341
 C        -0.6244153026        0.2602238237        3.8404135965
 C         0.7203783152        0.2014963464        4.7563615646
 C        -2.0117443989        0.9282094031        6.1175696005
 C        -2.9011238108       -0.7851674214        4.3088820671
 O        -2.3049494298        2.8551782222        3.9293634103
 O        -0.5761156473       -0.0585252412        2.7088714656
 C         1.9645144914        0.5980941684        3.9737820358
 C         2.3539721547        2.0350098518        4.3823294926
 C         3.8696010137        2.4658005468        4.4652016712
 C         4.8387730659        1.6462922099        3.5468641499
 C         5.7258230001        2.1488726635        2.3287168885
 O         1.5438902525        2.7847909949        4.8030231847
 O         5.0109503174        0.4757995974        3.7816218699
 C         4.0190666484        3.9896558327        4.1580759862
 C         4.2825773547        2.2329334717        6.0053201205
 C         6.5802263157        0.9931924052        1.5563086265
 C         6.0122168372        0.7708115098        0.1271165059
 C         6.6970904060       -0.3823838430       -0.7308367952
 C         6.4581414350       -1.8741705542       -0.0627764214
 C         5.0322947740       -2.0852503897        0.3998688063
 C         6.1664512767       -0.4786864875       -2.1682669779
 C         8.2158568791       -0.1542095685       -0.7609554434
 O         5.0697718444        1.3189283965       -0.3091898627
 O         7.3148856854       -2.7317748729        0.0406451633
 C         4.7633020658       -3.6232532193        0.4796898939
 C         4.3379795763       -4.0786296646       -1.0122587513
 C         3.7245385308       -5.4951568229       -1.2050792773
 C         2.3095216075       -5.6383969998       -0.4698494400
 C         2.1138000405       -6.0315049165        1.0172344613
 O         4.3920633751       -3.2949890863       -1.9266418525
 O         1.3076112704       -5.4233611405       -1.1362179118
 C         3.4403141256       -5.7720123264       -2.6992269813
 C         4.8258676697       -6.5759193448       -0.7033759542
 H         0.9148534160        2.9659668329        0.9139937811
 H        -0.7623030471        3.2888884632        1.6196401632
 H        -0.3085762183        1.6277134262        1.4573709289
 H         0.6605052549       -0.8361774184       -3.4503679438
 H         0.4159868161       -1.1001201906       -1.5737766466
 H        -0.3848328053        3.5410025293       -3.1105214041
 H         1.2222672624        3.0253156366       -3.2327513735
 H         0.7685170923        4.0254521608       -1.8459324303
 H         1.6926151794        0.7290161576       -0.1484263946
 H         2.1066268434        0.9642838985       -1.9048279640
 H         2.2468481962        2.2808359063       -0.7422149517
 H        -1.9852262939       -0.9973752621       -3.5427947106
 H        -1.0949172571       -2.4675955632       -3.2625907294
 H        -6.0892719103       -2.5108656887       -1.6021655608
 H        -5.3597966642       -0.9996167388       -1.4481461965
 H        -2.5464829240       -4.3950685756       -2.3085218490
 H        -3.3354460438       -4.7291356473       -0.8249809767
 H        -1.6915971824       -4.3159446503       -0.7831900064
 H        -4.6212273465       -3.3062134454        0.2983859453
 H        -3.0598756690       -2.5158943757        0.9109419469
 H        -4.4204869650       -1.5544350005        0.3827857740
 H        -7.3148462132       -1.3948013011       -3.4554284893
 H        -5.8632199375       -2.1450048061       -4.1416338777
 H        -5.9560356106        3.6075567597       -4.1989330190
 H        -7.7510353397        3.8278897453       -4.5326597885
 H        -4.7005775409        2.2084049227       -5.4362599311
 H        -6.2422579540        2.6390700052       -6.4169654667
 H        -5.3079768698        1.0800855504       -6.7243976124
 H        -8.3336305743        0.0467427605       -5.2404984889
 H        -7.8467368392        0.8116436922       -6.6597331916
 H        -7.0077973830       -0.7075296631       -6.4428457968
 H        -6.9381231959        4.8886219179       -2.3942508941
 H        -8.0245560096        3.7506978814       -1.9344272431
 H        -3.8547300338        3.5047489592        2.3444731392
 H        -5.3898261862        2.9237005001        2.6972852113
 H        -4.1066911869        4.8645281014       -0.9159821840
 H        -4.3758594442        5.2228359348        0.7487125709
 H        -5.4388252718        5.8469546480       -0.4919991874
 H        -7.7806081018        3.0870022632        0.2405162384
 H        -6.8144190611        3.5224007634        1.6408466630
 H        -7.5442396581        4.6965650276        0.5342783595
 H        -3.0568628238        1.0128810309        1.7835919802
 H        -4.5216232274        0.6202204799        2.9411285686
 H         0.6427830874        0.8560415379        5.7064198291
 H         0.8554829520       -0.8314397439        5.0522389180
 H        -1.0511276361        1.4767115474        6.1445429240
 H        -2.0130998738        0.0765525224        6.7645363034
 H        -2.7653789738        1.6623528354        6.3407764513
 H        -4.0158075678       -0.6786113277        4.4120287786
 H        -2.6312214160       -1.2554226790        3.3855688104
 H        -2.8058093847       -1.5537413585        5.1209600186
 H         2.7292558606       -0.0871047332        4.3820327763
 H         1.9147286699        0.5153141145        2.8874990399
 H         5.2664285408        2.6576708882        1.5624444970
 H         6.5385104925        2.8014399955        2.7193995987
 H         3.4237615141        4.6181095317        4.8978505641
 H         3.6225252026        4.2111913308        3.0625725029
 H         5.1158914971        4.3193568072        4.1738895864
 H         4.1196892457        1.2638937949        6.4151782067
 H         5.3608011143        2.4429996281        6.1657300829
 H         3.8092653397        3.0425644800        6.5944009321
 H         6.3408780889        0.0430930596        2.0981044248
 H         7.6805940889        1.1238338130        1.5650559546
 H         4.9874456318       -1.7328879891        1.4273184351
 H         4.3766430632       -1.5433441031       -0.3375470944
 H         6.8804064955       -1.0679901652       -2.7708982384
 H         6.0669372242        0.5091575360       -2.5909281283
 H         5.1922154043       -0.9458553223       -2.0822228508
 H         8.7179175273       -0.2213598601        0.1943222949
 H         8.7475727697       -0.7502473500       -1.4359410704
 H         8.4387777300        0.8899567433       -1.0329631755
 H         5.7687936302       -4.0594190847        0.8058123799
 H         4.0679024269       -3.8291959938        1.2015724113
 H         2.6640607054       -6.8978003182        1.2889673775
 H         2.4005009857       -5.2119609968        1.6097004428
 H         1.1282704477       -6.2918358721        1.4502014797
 H         2.7886323890       -4.9429766263       -3.0548177488
 H         3.0668072761       -6.7526349389       -2.7229894456
 H         4.3660537098       -5.6926322152       -3.2733624756
 H         5.7587515163       -6.6132812666       -1.1893465999
 H         4.9265559458       -6.5301728129        0.3909464756
 H         4.2967172543       -7.5593912721       -0.7857533763
 Na       -3.4324876911        0.8188227119       -1.5519125612
