155

 C         0.9760239601        2.7661985896        0.6308444418
 C         0.1184546511        2.2683734044       -0.5741897820
 C         0.8214509207        2.0681419881       -1.9274524492
 C         0.0466236373        1.0268946958       -2.7676319727
 C         0.3239701157       -0.4704708125       -2.6252741458
 C         0.7943341565        3.3998517195       -2.5858664439
 C         2.3364692444        1.5947450097       -1.7493645924
 O        -1.1202687771        2.4317633505       -0.5400154407
 O        -0.8259393204        1.4258283940       -3.5416427485
 C        -0.7857824403       -1.4527573924       -3.0201054184
 C        -1.8461327589       -1.6180598466       -1.8510238701
 C        -2.7163812718       -2.8931730462       -1.8412062533
 C        -3.7991852759       -2.7551988819       -3.0591473082
 C        -5.1175489703       -2.1078692604       -2.5627663922
 O        -2.0292303513       -0.7770713969       -0.9768576107
 O        -3.6130122547       -3.1949270725       -4.1663755763
 C        -1.9040858402       -4.2044491678       -2.2221617045
 C        -3.5214388367       -3.1079110686       -0.5270567193
 C        -5.9511123208       -1.3703013276       -3.6953710419
 C        -5.3727330244        0.0112673458       -3.9203114822
 C        -5.9437361472        1.0020417462       -5.0465798476
 C        -6.9973761158        1.9885076688       -4.3442513528
 C        -6.7005802812        3.3749900125       -3.7676077240
 C        -4.8551067766        1.8372065783       -5.7860009311
 C        -6.7308867214        0.2179625940       -6.1036839866
 O        -4.4216591940        0.2851758746       -3.1905348536
 O        -8.0687121786        1.4702924334       -4.1651245659
 C        -6.9426916377        3.4889061213       -2.2141969308
 C        -5.7135106766        3.0131626693       -1.3814929056
 C        -5.8526501250        2.6151417848        0.1486041836
 C        -4.5874956160        1.8754251808        0.6483107031
 C        -3.8693013542        2.0610654101        1.9920976671
 O        -4.6532329363        3.1095952191       -1.8934374800
 O        -4.0787955572        1.0518801108       -0.1158250553
 C        -6.0512741875        4.0157848857        0.8321740265
 C        -6.9760869098        1.5705332648        0.3620947399
 C        -3.0731130438        0.8574753785        2.4573124199
 C        -3.1891292312        0.5742242604        3.9319330933
 C        -2.1724519829       -0.3857348022        4.6014799039
 C        -0.6657965284        0.1814631101        4.3564098278
 C         0.0911393172        0.9919164807        5.4109980162
 C        -2.4376262149       -0.5563547039        6.1084351340
 C        -2.2129468187       -1.7588098756        3.8985275425
 O        -4.1327785576        1.0237749588        4.4985872793
 O        -0.1655418208       -0.0418537323        3.2440182053
 C         1.5883703695        1.0239604870        5.1618597786
 C         1.9553069187        2.3622298488        4.4144179664
 C         3.4192056039        2.9216866946        4.2631562744
 C         4.2876868131        1.9425658887        3.2586318774
 C         5.6921393835        2.3844408505        2.9115842695
 O         1.0616434509        2.9671676758        3.8584462187
 O         3.8757069416        0.8368354578        2.8554082269
 C         3.3072413880        4.3914973042        3.7665980274
 C         3.9392039859        2.9789509733        5.7643284193
 C         6.4258915174        1.3122896362        2.2157801261
 C         5.8994869644        1.1855821488        0.7395886937
 C         6.4861361024       -0.0519067334       -0.1119738720
 C         5.8099541706       -1.4689878996        0.3358313747
 C         4.2888396532       -1.4409934722        0.6888330902
 C         6.3030480897        0.1863008562       -1.7104156200
 C         8.0044534058       -0.0572386424        0.2477689542
 O         5.0190386016        1.8989332389        0.2251773505
 O         6.5158391223       -2.4506597452        0.3291611461
 C         3.8007715267       -2.8304339645        0.8511978081
 C         3.4729347199       -3.4965150952       -0.5345362784
 C         3.2648691247       -5.0466652248       -0.7379920565
 C         1.7708199605       -5.4907494722       -0.2746948037
 C         1.4871168173       -6.7478240887        0.6033169107
 O         3.4069551630       -2.7746764516       -1.5082574910
 O         0.8293705185       -4.8184389918       -0.5689620054
 C         3.2815949246       -5.3176213598       -2.2991794965
 C         4.3649821377       -5.7947768476       -0.0210327316
 H         1.8600693614        2.1589187346        0.8596291349
 H         1.3105865628        3.8306395836        0.4016779736
 H         0.3026726424        2.6869652613        1.4428551011
 H         1.2077254533       -0.7047447653       -3.3144341049
 H         0.8074231750       -0.6910453034       -1.7417309193
 H        -0.2368109857        3.6608905987       -2.6293763219
 H         1.3406157961        3.3095562226       -3.5808571150
 H         1.2143583958        4.3229759691       -2.0606282860
 H         2.5361845349        0.8518949568       -1.0689793134
 H         2.7152914618        1.4759824806       -2.7951687356
 H         2.9059046628        2.4466669287       -1.3016880922
 H        -1.2273578422       -1.0015968381       -3.9281837411
 H        -0.2807444732       -2.3867164854       -3.1061132030
 H        -5.8234302134       -2.8422421056       -2.0355153604
 H        -5.0111718723       -1.3252272429       -1.8072083500
 H        -1.4843047129       -4.2127250962       -3.1962948934
 H        -2.4492047541       -5.1261226251       -2.0831960331
 H        -1.1087044376       -4.2942841633       -1.4314517226
 H        -4.1435787350       -3.9910961133       -0.5311149869
 H        -2.7813208163       -3.1545257763        0.3199775528
 H        -3.9365796751       -2.1361364891       -0.2778913189
 H        -6.9937500831       -1.5128441809       -3.5592656452
 H        -5.6240627590       -1.9267936182       -4.6108265380
 H        -5.6311915042        3.6201279862       -3.9897129001
 H        -7.3039626945        4.2037529429       -4.2019752185
 H        -4.3970940630        2.4317283352       -4.9665820235
 H        -5.2645085784        2.5638858138       -6.3363961863
 H        -4.0889259864        1.2932092180       -6.3844939804
 H        -7.7942926512       -0.0504033955       -5.8234676485
 H        -6.8850743605        0.8124244689       -7.0134853413
 H        -6.2676574106       -0.7319318245       -6.2838008306
 H        -7.0475481553        4.5286380055       -1.9718553173
 H        -7.8465136996        2.8473969750       -2.0498250636
 H        -3.2062592022        2.9415774692        1.9618964296
 H        -4.6630047450        2.2714598215        2.7657409835
 H        -5.1980411830        4.5551884214        0.4316102583
 H        -5.9327382437        3.8372780908        1.8877321553
 H        -6.9804454357        4.4898236032        0.5697244529
 H        -6.9211601892        0.8825922301       -0.4776860502
 H        -6.7100719020        1.0295582737        1.2528772235
 H        -7.9599404387        1.9108720774        0.4002803779
 H        -2.1008855493        0.8517764653        2.0724424540
 H        -3.4372736019       -0.0261475702        2.0316138749
 H        -0.4939827659        1.9447498831        5.5781022958
 H        -0.0056703117        0.3747007845        6.2829719228
 H        -2.1257880587        0.2188352170        6.8011911312
 H        -2.0326504512       -1.5191408456        6.3715792778
 H        -3.5775724511       -0.5836720609        6.0851522619
 H        -3.2472815018       -2.0159986543        3.5866735365
 H        -1.6580857381       -1.6141438889        2.9563370949
 H        -1.7796534443       -2.5521398809        4.4839603838
 H         2.0336172583        0.9251706120        6.1571360547
 H         2.0117491777        0.1929442287        4.5907956800
 H         5.6413136914        3.3957894945        2.3404641765
 H         6.4229065472        2.8256816637        3.6792407663
 H         2.6120502537        4.8498407942        4.4320935707
 H         3.1412391993        4.4048939263        2.7349948464
 H         4.2473032283        4.9165059256        3.8860472436
 H         3.8351023073        1.9240486576        6.2220963042
 H         5.0130254908        3.2618530619        5.7691527305
 H         3.4456843313        3.8073181160        6.3389647454
 H         6.1895103242        0.3615066593        2.6834489050
 H         7.5126403823        1.3135686494        2.2927694646
 H         3.9962217209       -0.7825583058        1.4339484580
 H         3.8679683018       -1.0549298508       -0.2987464403
 H         6.5727661398       -0.7130368926       -2.1574020731
 H         6.8500219439        1.0756927864       -2.0114288789
 H         5.2489997492        0.3025954378       -1.8245071412
 H         8.0704034769       -0.4094779195        1.2526172658
 H         8.5420658314       -0.7395436043       -0.4395148634
 H         8.4829808695        0.8906337783        0.0521639897
 H         4.6014826830       -3.5014891975        1.3287077759
 H         2.9765109995       -2.9180813164        1.5692870399
 H         2.3387345830       -7.4399532998        0.9345406690
 H         1.0733310233       -6.4980339957        1.5933492656
 H         0.7511610881       -7.3189250452        0.0612671087
 H         2.3408304175       -4.8586926540       -2.5843776786
 H         3.0848303891       -6.3943352740       -2.5944894814
 H         4.1553891207       -4.8198102044       -2.6627423445
 H         5.3806313597       -5.4665531428       -0.2718060403
 H         4.4368394203       -5.6520519167        1.0273395616
 H         4.1790581907       -6.8094260024       -0.2190747966
 Na       -2.7957414441        1.6919091970       -2.0619098818
