155

 C         1.0435380348        2.5615861519        0.5538056756
 C         0.2800146901        2.3647838964       -0.6670399865
 C         0.9769464345        2.1601644670       -2.1121539297
 C         0.1363260927        0.9849050662       -2.8231193323
 C         0.3958894728       -0.5138007958       -2.5444957354
 C         1.0271576176        3.5546022344       -2.8801699159
 C         2.4640073030        1.7717332694       -1.9348917483
 O        -0.8868825383        2.5244732126       -0.7392931903
 O        -0.8388800874        1.3265580643       -3.4342135404
 C        -0.7607020947       -1.3784050827       -3.0819915867
 C        -1.7690994542       -1.7170396462       -1.9797884139
 C        -2.5514631443       -3.1309550369       -1.9673052583
 C        -3.7591502427       -2.7947397734       -3.0600134410
 C        -5.1115991941       -2.0973213135       -2.6102142789
 O        -2.0290941220       -0.9184196836       -1.1069876387
 O        -3.5337746721       -3.0826109774       -4.2196311810
 C        -1.7597848515       -4.3461577767       -2.3377838957
 C        -3.1596995677       -3.4256358271       -0.5593065657
 C        -5.6371610752       -1.2756165472       -3.8633279856
 C        -5.1238230043        0.1242565643       -4.0150370983
 C        -5.8726251707        1.0467214899       -4.9788083172
 C        -7.0292428145        1.8945678862       -4.2323922872
 C        -6.6571505911        3.3045601869       -3.6424700659
 C        -4.7571812654        1.9517871626       -5.4450742425
 C        -6.5122728285        0.3033449663       -6.1463429043
 O        -4.1767690415        0.6340194313       -3.4738253266
 O        -8.2329134065        1.5904217774       -4.1609989694
 C        -6.8044857026        3.4113293443       -2.1268704910
 C        -5.5859220993        2.9232835361       -1.4067861830
 C        -5.8318745610        2.5656542048        0.1040825768
 C        -4.4876300285        1.8208618901        0.6084911102
 C        -4.0978641264        2.0221016149        2.1255682622
 O        -4.5227002991        2.7699093882       -1.9745942854
 O        -3.9492027656        1.0491121077       -0.1018636928
 C        -6.3623617912        3.8118752087        0.9561505248
 C        -7.0696654290        1.5309295595        0.2832778305
 C        -3.1161161780        0.8137266127        2.5017300927
 C        -3.1802846723        0.4069104328        3.9844187117
 C        -2.1541806751       -0.6269603577        4.5672592211
 C        -0.7515914299       -0.0162021884        4.2943769066
 C        -0.1534068192        0.9102624971        5.4209514531
 C        -2.5767075455       -0.9398922239        6.0254086585
 C        -2.3159440293       -1.8826813415        3.6887144428
 O        -4.1808706697        0.6722696977        4.6848875789
 O        -0.0707607931       -0.2554501716        3.3320270891
 C         1.3773905187        1.2740359033        5.1201083272
 C         1.8066197436        2.5727786511        4.3761963466
 C         3.3108288876        3.1525102652        4.3422728758
 C         4.0805617181        2.1581642984        3.3509659820
 C         5.6359107757        2.4646544022        3.1195583626
 O         0.9086914308        3.1768630205        3.7600550867
 O         3.4314132309        1.3343270746        2.7867377764
 C         3.3222627466        4.6904429586        3.7980452163
 C         4.0726356774        2.9571296572        5.7438235717
 C         6.3447447325        1.2886191831        2.2888829840
 C         5.8641405252        1.2033104789        0.7453687785
 C         6.4632251328       -0.0170906924       -0.0868096708
 C         5.7349034305       -1.3703890554        0.4185676174
 C         4.1924035111       -1.3278349376        0.7279868710
 C         6.2253860224        0.3191994354       -1.5481285098
 C         7.9803731071       -0.3021211867        0.1668702570
 O         5.0686752122        1.9342686754        0.2469453188
 O         6.4070396481       -2.3735414524        0.6421937422
 C         3.5855479402       -2.7454768711        0.8834282636
 C         3.3499158922       -3.3268421507       -0.5507364667
 C         3.0648574680       -4.8887911999       -0.7445016189
 C         1.6539565744       -5.3815603162       -0.1666910718
 C         1.5335902784       -6.8574990828        0.4019243463
 O         3.2446790353       -2.6571341785       -1.5510601361
 O         0.6815752734       -4.6258319543       -0.2506565372
 C         3.1426856790       -5.2620000131       -2.2116322109
 C         4.2042018746       -5.6673995736        0.0349089883
 H         1.0217535730        1.6497411112        1.1544982244
 H         1.9581448458        2.8727109648        0.2977205071
 H         0.4336921446        3.1900698550        1.1954198541
 H         1.4034533317       -0.7990360261       -2.6896956377
 H         0.4093081269       -0.7694668025       -1.3853186396
 H         0.0674822091        4.0808724435       -3.0720213878
 H         1.6566764169        3.4438314262       -3.7580092043
 H         1.4708488622        4.2565407840       -2.2184776873
 H         2.6641990300        0.6698941345       -1.6124875451
 H         2.9227480321        2.0765886094       -2.8265893468
 H         2.9237719790        2.2768187230       -1.1571937557
 H        -1.3887627111       -0.9103859854       -3.8185642562
 H        -0.3045823813       -2.3359106472       -3.3535824574
 H        -5.8159798447       -2.8772169687       -2.4738671484
 H        -5.2045876032       -1.5055269660       -1.6826618043
 H        -1.7606473578       -4.3110942041       -3.4923227459
 H        -2.3064248841       -5.3042337241       -2.0928714001
 H        -0.7775262264       -4.4623815675       -1.9195849610
 H        -3.9768578411       -4.1178470255       -0.7345467246
 H        -2.4614366290       -3.8102603742        0.1195723380
 H        -3.5136465642       -2.4698133658       -0.0953169275
 H        -6.7935682294       -1.3061697795       -3.8536677230
 H        -5.2448933245       -1.9097189636       -4.6938684628
 H        -5.6889116257        3.7522947187       -3.9364732687
 H        -7.3880000629        3.9411653709       -4.0819210447
 H        -4.2029293055        2.5150612471       -4.7123197788
 H        -5.1601426132        2.7780616475       -6.1908958108
 H        -4.1486715148        1.3258323370       -6.1102782673
 H        -7.5351305178        0.2056184215       -5.9120810902
 H        -6.5861170027        0.8985803742       -7.0472402269
 H        -6.1548460612       -0.7173593581       -6.4502263805
 H        -6.7901000628        4.4956788499       -1.7937515857
 H        -7.6717522698        2.8431352157       -1.8891578574
 H        -3.6035869045        3.0220104143        2.2262419105
 H        -5.0156027368        2.0355898491        2.7261689658
 H        -6.2458431986        4.7280850637        0.3786252895
 H        -5.8196965137        3.7421197758        1.8828829992
 H        -7.4457124936        3.6917194811        1.0740671527
 H        -6.8316595046        0.4994478161        0.0545554000
 H        -7.4366466123        1.6930200483        1.2994496681
 H        -7.8455500590        1.6695112154       -0.5456949515
 H        -2.0109355279        0.8150557241        2.1800774262
 H        -3.5279623698       -0.0076669558        1.7728251761
 H        -0.7930641254        1.7914990915        5.3886247584
 H        -0.2874339147        0.4041165339        6.4186850626
 H        -2.4532816298        0.0178642872        6.5865460172
 H        -1.8954302212       -1.7030093433        6.4327877148
 H        -3.5985704440       -1.1591319603        6.0666828269
 H        -3.3439577408       -2.2070630066        3.7905059919
 H        -1.9858358942       -1.8029362224        2.6870311139
 H        -1.7694767192       -2.6664579714        4.2260558613
 H         1.9500890247        1.1927522186        6.0734335568
 H         1.8508347520        0.5435824544        4.4097862824
 H         5.7928976287        3.3998850418        2.6867884267
 H         6.1979482036        2.6606637140        4.0248135866
 H         2.5510290697        5.3160400096        4.2070626751
 H         3.2805640288        4.6215264678        2.6755602016
 H         4.2505241658        5.1541117538        3.9587254813
 H         4.4174019009        1.9630688134        5.7967115208
 H         4.9555849734        3.5631574680        5.7547750557
 H         3.4992078317        3.2542504453        6.5771205005
 H         6.2474895652        0.2761870611        2.7718221363
 H         7.4219066554        1.4492675653        2.1896919923
 H         4.1757518116       -0.8430273249        1.7936807040
 H         3.7019042450       -0.6225608112        0.1285702330
 H         6.6542947091       -0.5301174327       -2.1183553587
 H         6.7561475342        1.2316660808       -1.6431266921
 H         5.1675535636        0.4697737762       -1.7352757959
 H         8.2571312500       -0.7620683265        1.1420364784
 H         8.2373320474       -0.9310924680       -0.6670982245
 H         8.5887270338        0.6546397417       -0.0219247570
 H         4.1987519840       -3.3510999466        1.5189860015
 H         2.6244771859       -2.7862374334        1.3484794366
 H         2.3599236247       -7.1332950687        1.0195604704
 H         0.7079329064       -6.9400364314        1.0664480685
 H         1.4411399705       -7.5874885072       -0.4196168322
 H         2.2000118315       -5.0851439999       -2.7411215506
 H         3.2270873584       -6.2919517095       -2.1945996828
 H         4.0415116631       -4.7856301630       -2.6052173844
 H         5.1362440878       -5.1606054503        0.0628835658
 H         3.9870128022       -5.6428690559        1.1303676020
 H         4.3055472761       -6.7468647550       -0.2814961777
 Na       -2.5189026404        1.3534298822       -1.8586437502
