155

 C         5.7961554423       -7.1392037038       -2.1902623961
 C         5.3930174196       -8.5130014855       -1.6203512910
 C         3.9884305968       -8.6550268540       -0.7377223589
 C         2.7668244716       -7.7867052165       -1.3309479975
 C         1.8378454088       -8.4902095734       -2.2503957899
 C         3.7141080169      -10.1986987598       -0.5380624944
 C         4.3973531514       -8.0317218688        0.6267763004
 O         6.0873247118       -9.5176558236       -1.8490004684
 O         2.7048268403       -6.5812139764       -1.1540028087
 C         0.7361066797       -7.6546328244       -2.9159784450
 C         1.4134665478       -7.0369867030       -4.1814751791
 C         0.5929817696       -6.2592458960       -5.2964029463
 C         0.9566733467       -4.7584112399       -5.4111641840
 C        -0.0789693240       -3.6999269626       -4.9452206663
 O         2.6225985124       -7.0406126250       -4.2642381957
 O         2.1169421906       -4.4370629110       -5.7137935506
 C         1.1139176466       -6.8978782719       -6.5628378223
 C        -0.9440381367       -6.4302395154       -5.1930636940
 C         0.4345836363       -2.2653245520       -4.8665807805
 C        -0.3542825146       -1.4590241898       -3.7819722007
 C        -0.2158446529        0.1517885858       -3.8229971345
 C        -0.2599034869        0.6075230837       -2.2696993191
 C         1.0324229970        0.8959256686       -1.6198081131
 C         1.0182168430        0.5538416278       -4.4992235706
 C        -1.5174915737        0.7233963177       -4.4739501846
 O        -0.9754828346       -2.0266907743       -2.9480985188
 O        -1.3062682728        0.6067717013       -1.6845484857
 C         1.5567392183       -0.1609988245       -0.7308748551
 C         1.8751802143        0.3934332747        0.6757535399
 C         2.4270113036       -0.6851065704        1.6812340378
 C         1.1113825325       -1.1253535485        2.4598341539
 C         0.5364889462       -0.1386872694        3.6287635632
 O         1.6869965159        1.5529918083        1.0281669972
 O         0.4792561398       -2.0616141292        2.1219230906
 C         3.1668640576       -1.9227741151        1.0761232026
 C         3.3732983392       -0.1162652780        2.8309553508
 C        -0.9965991078       -0.3488898623        3.7249567842
 C        -1.7742963227        0.0075785219        2.4873088365
 C        -3.3250669177        0.1358843640        2.5361652961
 C        -3.4228303301        1.5781598410        3.0604596544
 C        -3.9921726521        1.8345634071        4.4344892500
 C        -3.8997830265       -0.0727324982        1.1582904514
 C        -4.0261443972       -0.8590449751        3.5396414321
 O        -1.2792044178        0.2499846583        1.3584470727
 O        -3.2145079753        2.4949917508        2.2811749968
 C        -3.7003286821        3.2115610423        4.9976641718
 C        -2.1954028823        3.2307840519        5.5154565770
 C        -1.6639257123        4.6221128364        5.9640826807
 C        -1.0709664141        5.0401338855        4.5978530209
 C         0.4195770254        4.5552807766        4.3764493949
 O        -1.3471550611        2.3704768860        5.2850627786
 O        -1.6922383268        5.6183586508        3.7172280698
 C        -2.8123774181        5.7481201947        6.2337708935
 C        -0.6237424559        4.3942767250        7.1294900284
 C         0.9416566714        4.9734711992        2.9437839567
 C         0.3893818922        4.2422238941        1.7622956469
 C         0.7361321064        5.0079344399        0.3967094624
 C        -0.5457036276        4.8014175126       -0.3685703307
 C        -1.5911718972        5.8944549261       -0.3438466137
 C         1.0707157784        6.4641379342        0.4492086128
 C         1.9509109129        4.2802858976       -0.3076921417
 O        -0.3762841780        3.3137952185        1.8722440866
 O        -0.6473824033        3.8293979995       -1.0856460476
 C        -2.8687961175        5.8405011868       -1.1709833049
 C        -3.9686605184        4.8916560942       -0.6149476001
 C        -5.4257349305        4.6851995881       -1.1992700495
 C        -5.8356227647        5.9347362760       -1.9806034819
 C        -7.2302646910        6.0146688950       -2.7398608733
 O        -3.6686366607        4.0630370074        0.2814305196
 O        -5.2514407214        6.9902074720       -1.9278406109
 C        -5.4816329151        3.3783415169       -1.9833357436
 C        -6.4089120054        4.4514276740       -0.0206459169
 H         5.2877852163       -6.9287766314       -3.1050681747
 H         5.5975808795       -6.4802276801       -1.3476979080
 H         6.9101017433       -7.1865492233       -2.3005925668
 H         2.4611551992       -8.8700340923       -3.0500261255
 H         1.4847469817       -9.4242993979       -1.7686634293
 H         4.6067780237      -10.6024646357       -0.1558778859
 H         3.5465186835      -10.6604225793       -1.4903524818
 H         2.9510375273      -10.4846457764        0.1425969539
 H         3.6470454474       -8.1486028127        1.3509479032
 H         5.2197853268       -8.6125313972        0.9140731025
 H         4.6722767933       -6.9895256585        0.6093098030
 H        -0.1424472611       -8.2634418753       -3.0731280389
 H         0.5134789234       -6.8102119461       -2.2109853288
 H        -0.8495866553       -3.7581164280       -5.7380266736
 H        -0.5757939831       -3.9686825082       -4.0333533012
 H         2.2265227049       -6.9556606431       -6.5680639032
 H         0.7278619453       -6.4925570594       -7.4261260294
 H         0.8179750496       -7.9352999556       -6.5981988196
 H        -1.5068048189       -6.0648984750       -6.0476209643
 H        -1.2647752340       -7.4788376547       -5.2174482088
 H        -1.4779277892       -5.9927297085       -4.3878227187
 H         0.3591805834       -1.8333721165       -5.8078111294
 H         1.4413509659       -2.4511770744       -4.4826673138
 H         1.8213139848        1.2221511403       -2.2994116082
 H         0.8542017893        1.7940292650       -0.9828138294
 H         1.9471810020        0.2078326759       -4.0159926124
 H         1.2065874898        1.5993686758       -4.5158460048
 H         0.9656504273        0.2769676011       -5.6062983749
 H        -1.5242282516        1.7708787613       -4.2578871639
 H        -1.5413507436        0.6704927331       -5.5770768739
 H        -2.4654104718        0.2739069284       -4.1424096891
 H         0.9975532989       -1.0777190720       -0.5045577227
 H         2.5199237270       -0.6674749751       -1.0874177048
 H         1.0085291891       -0.5042232816        4.5236911222
 H         0.9287283544        0.8539478815        3.2239345584
 H         3.8788967501       -1.5914349851        0.3798509504
 H         2.4922365303       -2.6383709090        0.5487666771
 H         3.6320939207       -2.4432002691        1.8533462731
 H         2.9552301864        0.7968422369        3.1968733198
 H         3.3714333387       -0.8416930981        3.5544391855
 H         4.3700696446        0.0407637364        2.4129568672
 H        -1.4689180722        0.0501096550        4.6727117224
 H        -1.1316906037       -1.4479553704        3.7453901962
 H        -5.1363483221        1.6463830384        4.5121806887
 H        -3.4738229735        1.0542470091        5.0852024041
 H        -3.9597262479        0.8557147946        0.5242430431
 H        -4.8961269688       -0.4734388457        1.2624340971
 H        -3.2033533640       -0.7717171232        0.6782098656
 H        -5.1113313851       -0.8252741742        3.4858056158
 H        -3.6066215810       -1.7645804218        3.2224320335
 H        -3.8385251357       -0.6487727411        4.5557148672
 H        -3.6278521472        3.9231695688        4.1284809627
 H        -4.4097588668        3.5916266929        5.7003939810
 H         0.9935140418        5.1443514226        5.1882071148
 H         0.4218470045        3.4983718652        4.4974530709
 H        -2.2641146403        6.5375702028        6.6870334806
 H        -3.4401261796        5.4354067962        7.0381133971
 H        -3.2851417009        5.9652567465        5.3563037552
 H         0.0265598014        5.2715567835        7.2467735751
 H        -1.1651577270        4.2313539595        7.9637595326
 H         0.0991185196        3.5619628104        6.9293204057
 H         2.0020872425        4.9850043113        2.9637000645
 H         0.7914087707        6.0163399889        2.8280068600
 H        -1.7601662250        6.2991863236        0.6850877869
 H        -1.0021390317        6.6270576593       -0.8587070320
 H         1.2125409417        6.8609842607       -0.5756680296
 H         1.9708454984        6.6842234640        0.9743168363
 H         0.4005353950        7.2590668583        0.8593920086
 H         2.9360416228        4.4307724178        0.3605010916
 H         1.6558437116        3.2098191997       -0.1935895323
 H         2.0186870928        4.6574917123       -1.3344410400
 H        -3.2140913836        6.8940073113       -1.0555506440
 H        -2.6441665703        5.4099918219       -2.1884113070
 H        -7.1337798431        5.2885553926       -3.5932036630
 H        -8.0704629148        5.6382764939       -2.1364431343
 H        -7.3353007599        7.0017077218       -3.0911986958
 H        -4.7956200418        3.3772277457       -2.8401877838
 H        -6.4723789261        3.0427784313       -2.2774843957
 H        -5.0877475605        2.5904629309       -1.3127062032
 H        -6.8107295037        5.3102591273        0.4722710160
 H        -7.2014331829        3.8140031336       -0.3920299925
 H        -5.9141256542        3.8750734801        0.7718303015
 Na       -1.8368434074        2.3484787287        0.3016239039
