155

 C         6.4187668068       -8.1433834381       -2.6340054093
 C         5.1776753170       -8.7624647086       -2.0142499271
 C         4.2085376439       -7.9851895141       -1.1285144534
 C         3.2937634024       -7.0973726479       -2.0895887545
 C         2.3701307473       -7.6515772668       -3.2070425787
 C         3.2509569515       -8.9848659432       -0.3703003569
 C         4.9535084287       -7.0154717672       -0.0699186030
 O         4.8930309335       -9.9395894819       -2.3383291652
 O         3.2783993066       -5.8610605427       -1.9644134242
 C         1.7398813567       -6.5616554942       -4.0947820518
 C         2.7135575654       -5.7834777635       -4.8520243624
 C         2.2819436996       -4.9662126035       -6.0890701312
 C         2.6370412695       -3.4097115295       -5.5893814438
 C         1.9759804085       -2.9372950666       -4.2385555408
 O         3.8896812454       -5.9331001636       -4.5909685549
 O         3.2879780269       -2.6337857675       -6.2373672129
 C         3.2334584916       -5.2425935011       -7.3724407126
 C         0.7366310668       -4.9420074970       -6.3811255904
 C         1.6055679518       -1.4496406566       -4.2217328338
 C         1.2876450298       -0.9817916020       -2.8247742635
 C         1.4422515116        0.5677415744       -2.4926105568
 C         0.8244727043        0.8617807660       -1.1888308174
 C         1.5208431494        0.5564203570        0.1390279640
 C         2.9692681829        0.9034767005       -2.4223422078
 C         0.6503202095        1.4269952291       -3.6392533737
 O         0.9287711330       -1.6898778477       -1.8790243993
 O        -0.2890287902        1.3522019603       -1.1156309356
 C         1.0685339777       -0.7042042142        0.8819307727
 C         2.0539497452       -0.9874471482        2.0819694569
 C         1.7389755412       -2.3429830715        2.9976965576
 C         0.2318474318       -2.4211132275        3.4253372566
 C        -0.5040724695       -1.0675010550        3.7641731388
 O         3.0558135319       -0.4424743535        2.2988348100
 O        -0.3896899526       -3.4799482573        3.4842559422
 C         2.0953567085       -3.6469684402        2.2159586082
 C         2.7151105640       -2.2415026034        4.2472110835
 C        -2.0478908428       -1.0979782548        3.5066222053
 C        -2.5056955581       -0.1441516539        2.4174802486
 C        -4.0445676300        0.2333449726        2.2876459465
 C        -4.2269289762        1.7627195424        2.6617332537
 C        -5.0473998055        2.2380819863        3.8974399213
 C        -4.4184040799        0.1247616935        0.6696329810
 C        -4.9526470458       -0.8008781837        3.0686647494
 O        -1.7075136137        0.5207702955        1.7354851464
 O        -3.8836445063        2.5768862151        1.8394292013
 C        -4.5792518715        3.4780424319        4.5840247078
 C        -3.4205152216        3.1318812590        5.4946857092
 C        -2.5447392212        4.1733593064        6.2670248239
 C        -1.9451486701        5.0238468475        5.0333456001
 C        -0.5387169033        4.8726588719        4.5702068636
 O        -3.0248089336        1.9857651451        5.5190048290
 O        -2.6635852129        5.8913860523        4.5255272846
 C        -3.3915507039        5.1244431385        7.1413695233
 C        -1.4571036658        3.4945968169        7.2469349386
 C        -0.1416507605        5.7682833115        3.3777303525
 C        -0.9511317732        5.4315545693        2.1989706863
 C        -1.0643079422        6.4454005182        0.9546359690
 C        -1.9960416052        5.7108915662       -0.2281571239
 C        -3.5397678341        5.5547393402        0.0064063366
 C        -1.5534809276        7.8472074759        1.5133766880
 C         0.4135883522        6.6192873526        0.4334055398
 O        -1.3663914846        4.3405257637        2.0720727086
 O        -1.5422880142        5.4024628724       -1.2787462807
 C        -4.2915279705        5.2173338087       -1.2898850680
 C        -4.0484784191        3.7084722972       -1.7497290062
 C        -4.9722707561        2.9667328245       -2.8049923193
 C        -4.6968369426        3.5783302602       -4.2294134203
 C        -4.8346710720        2.8005607908       -5.5209806442
 O        -3.0912868187        3.0974722811       -1.2961514593
 O        -4.4173227051        4.7154202107       -4.2432679874
 C        -4.5499726159        1.5035418644       -2.9271478108
 C        -6.4999466945        3.0100299361       -2.5607639056
 H         6.1188111714       -7.2444964390       -3.1227489305
 H         7.2142420292       -7.7933460610       -1.8908530958
 H         6.9386457553       -8.8203624888       -3.3216026061
 H         3.0677023265       -8.2027119297       -3.8250684857
 H         1.5869251461       -8.2776761398       -2.8012091476
 H         3.8550232048       -9.6131462933        0.2142769098
 H         2.7943131404       -9.5931318545       -1.0989595660
 H         2.5051741523       -8.4857523382        0.2043094445
 H         4.3731854586       -7.0301113558        0.8549107454
 H         5.8360863592       -7.6077652470        0.3059929695
 H         5.1819139330       -6.0233667087       -0.5358998426
 H         1.1384156876       -7.0049148179       -4.8642813016
 H         1.0479667424       -5.9295406294       -3.4288843072
 H         1.1877292425       -3.6120242177       -3.8915990146
 H         2.7493857709       -3.0796982512       -3.4499080864
 H         4.2777706356       -5.4600542925       -7.0568207703
 H         3.3144244736       -4.2589463346       -7.8529612954
 H         2.7509921259       -5.9861915848       -8.0855097267
 H         0.6167107853       -4.0181427826       -6.9109537371
 H         0.4638715250       -5.8946601980       -6.8421341389
 H         0.2204806791       -4.7672502965       -5.4156252401
 H         0.8219467778       -1.0572780827       -4.8504427421
 H         2.5100896185       -0.8458968253       -4.4890571943
 H         2.5961461836        0.5137702434        0.2180935949
 H         1.3022943813        1.3255552523        0.8805751738
 H         3.5899162053        0.0549182302       -2.1630782608
 H         3.2054883452        1.6092592620       -1.6542363365
 H         3.5196723112        1.2979567956       -3.3146609721
 H         0.7717714621        2.5363026784       -3.5526498246
 H         1.1577805710        1.1826553455       -4.5868791547
 H        -0.4185349824        1.1769909734       -3.6251837012
 H         0.0741594456       -0.5454781667        1.3360797696
 H         1.0871848916       -1.5102327133        0.1116836986
 H        -0.1862597781       -0.5995028776        4.7269383509
 H        -0.0829761257       -0.3731832583        3.1356554148
 H         3.1350575580       -3.8546795545        2.4738209360
 H         2.1304054688       -3.5372350455        1.1152128004
 H         1.4624610977       -4.4274138256        2.4531644995
 H         2.6469607686       -1.3182980569        4.7938675247
 H         2.7219834926       -3.0137671746        4.9668811433
 H         3.7822461868       -2.2859166729        3.9391669072
 H        -2.5132752700       -0.8434457016        4.4440101220
 H        -2.4512816717       -2.0368934164        3.2704960754
 H        -6.1013777412        2.3342827266        3.5589137774
 H        -5.1057165232        1.4635023120        4.7226112928
 H        -3.7263076975        0.7286910725        0.1140272816
 H        -5.4633881925        0.3920286906        0.6062598539
 H        -4.4034534822       -0.9214337400        0.5501826527
 H        -5.5401783708       -1.2331976980        2.2584532958
 H        -4.3838443932       -1.6056195738        3.5217029158
 H        -5.7593546716       -0.2256952691        3.5890777179
 H        -4.1222693697        4.1576450917        3.8709771296
 H        -5.4331906052        3.9042792266        5.0720165851
 H         0.1182312264        5.1247034605        5.4439042553
 H        -0.3023902292        3.8826552570        4.3138577936
 H        -2.8223024665        5.9197397482        7.5712718316
 H        -4.0925758502        4.7253969330        7.8123287014
 H        -3.9572334942        5.8218012354        6.4534865302
 H        -1.8563247144        3.2735959947        8.1420523685
 H        -0.9502663241        2.5746490517        6.8755604302
 H        -0.6396192875        4.2825346013        7.4435597114
 H         0.7881006476        5.4391621591        3.0658994167
 H        -0.1607514317        6.7911519227        3.6434034432
 H        -3.8687545775        5.0010410954        0.9341241047
 H        -3.8188030276        6.5840602452        0.3526110232
 H        -1.7513066766        8.5730747112        0.6975391698
 H        -0.7100575209        8.1949353500        2.1254813708
 H        -2.4853963890        7.7070937655        2.0876690780
 H         0.6358667774        6.5214585595       -0.6398041167
 H         0.8525376987        7.6137675911        0.7011691252
 H         1.2148532896        5.8392257266        0.9292162203
 H        -5.3777809906        5.3844552939       -1.1556273977
 H        -3.7660064315        5.8781343976       -2.0708184169
 H        -4.1353055109        1.9262839391       -5.5535020634
 H        -5.8700221607        2.3737713949       -5.7047197017
 H        -4.7463695342        3.4423797244       -6.3912660698
 H        -3.6465184697        1.3261386010       -3.4930324817
 H        -5.3212829176        0.9572748783       -3.4866726715
 H        -4.4630514894        0.9860477806       -1.9844398659
 H        -6.9392961508        2.3192929858       -1.7975894653
 H        -6.8240085121        4.0466519004       -2.3485815437
 H        -7.0303389889        2.7625955092       -3.4846916721
 Na       -1.6289088611        2.6827214164        0.5841475256
