155

 C         6.3834064437       -6.5809082255       -2.5773924316
 C         5.3580077585       -7.6537913797       -2.4401821005
 C         4.0839627645       -7.2827474779       -1.4896564871
 C         3.1986407443       -6.2300747258       -2.2207864124
 C         2.5053155595       -6.7022500112       -3.5080171504
 C         3.2751364039       -8.6392927758       -1.2754107382
 C         4.5150451316       -6.6287857029       -0.1359188195
 O         5.4516078564       -8.6835312990       -3.0877551562
 O         3.0971543282       -5.0860704695       -1.8345813484
 C         1.9343742150       -5.5146888270       -4.2447169141
 C         2.9072365739       -4.8453448400       -5.2692508046
 C         2.2898448008       -3.5679251682       -6.0154696229
 C         2.8993120701       -2.2770113557       -5.3517638151
 C         1.9462358868       -1.4486503557       -4.4568241531
 O         4.0371901160       -5.2296453476       -5.3732643355
 O         4.0704282560       -2.0496819458       -5.4174830621
 C         2.8092063727       -3.6838101283       -7.4774505658
 C         0.7315373425       -3.5761114024       -6.0101289700
 C         2.7099411106       -0.4312265602       -3.6401007918
 C         2.1063369387       -0.2267722967       -2.2663806247
 C         2.0270077272        1.2429559578       -1.6922345680
 C         1.2026890755        1.1200703448       -0.3201825528
 C         1.8797868688        0.4661259055        0.9119466482
 C         3.4510417724        1.7901349515       -1.5066321933
 C         1.2677537105        2.2805578013       -2.6508061317
 O         1.5942488226       -1.1740119621       -1.7451610455
 O         0.0639425343        1.6781817879       -0.3187003039
 C         1.0533145166       -0.7607301436        1.4435381618
 C         1.4768003771       -1.2358460152        2.8090504344
 C         0.8613145915       -2.5039231252        3.3401327281
 C        -0.6220809184       -2.2549821927        3.6121506626
 C        -0.9165620309       -1.0514026327        4.6130032007
 O         2.3386604997       -0.5931531427        3.3367866716
 O        -1.4232523978       -3.0616156689        3.2192882793
 C         1.0157584617       -3.7981113589        2.4845567026
 C         1.6702239512       -2.8182363018        4.6795937220
 C        -2.4829713995       -0.7086916281        4.7007075672
 C        -2.9803918799       -0.4863257672        3.2409405664
 C        -4.3968404490       -0.5513363326        2.6855575328
 C        -4.7425772758        1.0234353589        2.4178619408
 C        -5.6485809701        1.6797071182        3.4480418136
 C        -4.3958206442       -1.2442180548        1.3003311614
 C        -5.3888446725       -1.2008106409        3.7286061398
 O        -2.0629644149       -0.1014081703        2.4569827170
 O        -4.3657391924        1.5978997093        1.4337187068
 C        -5.2963980997        3.0781967705        3.8903840899
 C        -4.0241914368        3.2521582745        4.5710242854
 C        -3.5091003971        4.5985420167        5.2936188375
 C        -2.5338416557        5.4701389889        4.3254300186
 C        -1.0108402713        5.4083143297        4.5145668077
 O        -3.1226758425        2.4053965709        4.4527349728
 O        -3.0671568683        6.1174956771        3.4778844996
 C        -4.7161374348        5.6080960498        5.4988219884
 C        -2.9586145828        4.0335915433        6.6946177926
 C        -0.1635613758        5.6357551697        3.2308447222
 C        -0.7173126013        4.7063883740        2.0589040445
 C        -0.8052342999        5.3387864057        0.7091114084
 C        -1.7585301573        4.5789076068       -0.4739297221
 C        -3.2587480844        4.2048002948       -0.2140748021
 C        -1.5348690581        6.7469611237        0.7306258231
 C         0.6484590470        5.4460083613        0.1776198893
 O        -1.0491534570        3.5752088630        2.3318577997
 O        -1.3265924038        4.6163261574       -1.6064083546
 C        -3.9125036071        3.7778597329       -1.4880802395
 C        -3.4869919818        2.3145794275       -1.8566885264
 C        -3.8165705543        1.6737529071       -3.2253388809
 C        -3.5506854479        2.7353648689       -4.3716611044
 C        -2.1894124804        3.4337858904       -4.4154084136
 O        -2.9506129289        1.6260188107       -1.0410556904
 O        -4.4334942681        3.0452967594       -5.1668308350
 C        -2.8657508474        0.4270369249       -3.5839060367
 C        -5.2835331995        1.1718601979       -3.1379809427
 H         5.9812758830       -5.5287639327       -2.5649655400
 H         7.1572016597       -6.5180540419       -1.8125038703
 H         6.9130121053       -6.7957621241       -3.4729867426
 H         3.2496174434       -7.2152379389       -4.1334083961
 H         1.8324771633       -7.5099679184       -3.3416938665
 H         3.3681209690       -9.0502165656       -0.3599490564
 H         3.3524800377       -9.2892036026       -2.0791940896
 H         2.2430718384       -8.4379031466       -1.3001043196
 H         3.7092450650       -6.0201645844        0.1964304045
 H         4.7266247117       -7.3854786511        0.6256954534
 H         5.3669053731       -6.0215043035       -0.4312090178
 H         1.1221676954       -5.9170893923       -4.8032988506
 H         1.4511088774       -4.7257743174       -3.5921881372
 H         1.1421836945       -0.8716676478       -4.9767714171
 H         1.4982750179       -2.1723234733       -3.8362856723
 H         3.7669018924       -3.3175569540       -7.5786199007
 H         2.3794881603       -3.0502948838       -8.2516736286
 H         2.7171895011       -4.7161596736       -7.9123497072
 H         0.3747142259       -2.8073458921       -6.6611947774
 H         0.3414158639       -4.3616279060       -6.5909287238
 H         0.2450666385       -3.5843511204       -5.0913470655
 H         2.5249518727        0.4621747902       -4.2058757565
 H         3.8084005480       -0.5663254422       -3.6145027726
 H         2.9835160008        0.2330112988        0.8618932636
 H         1.9534563503        1.2924499794        1.6898965585
 H         4.1541751871        1.3061022258       -2.1958525315
 H         3.6979014885        1.5535298370       -0.4211950911
 H         3.4223817107        2.8518383147       -1.5039864152
 H         1.0837841782        3.2231519155       -2.1305780630
 H         1.9224152406        2.3597210567       -3.5124721629
 H         0.2154968479        2.0083346038       -2.8911608180
 H        -0.0249933475       -0.5883140327        1.2884239157
 H         1.2852539559       -1.6384952079        0.8157805207
 H        -0.6585603964       -1.3403494661        5.6542882435
 H        -0.3105191866       -0.1214425773        4.3292496915
 H         2.0424365936       -4.0529437646        2.3867872494
 H         0.5700387850       -3.8007283708        1.5517626980
 H         0.4973437463       -4.5319541003        3.1526473698
 H         1.8400079051       -1.9444165560        5.2695221848
 H         1.1976478609       -3.6942489029        5.1764400308
 H         2.5685943881       -3.1021423218        4.2678380173
 H        -2.6276933325        0.1763967375        5.2894654302
 H        -2.9707124760       -1.5024670644        5.2169830735
 H        -6.6769391678        1.7310538906        2.9598340611
 H        -5.7238247752        1.0738869500        4.3718282311
 H        -4.0053586416       -0.4838692602        0.5660071319
 H        -5.4342408623       -1.3795194871        1.0901690862
 H        -3.9085644425       -2.2326884604        1.2953810686
 H        -6.4695217625       -0.9650566670        3.5858791999
 H        -5.3617076779       -2.2584738212        3.6797995695
 H        -5.2888562612       -0.7140875035        4.7034535978
 H        -5.0368231378        3.6358108505        2.9605162157
 H        -6.1423840354        3.5797436877        4.3204693088
 H        -0.8599687505        6.2416238631        5.1984299664
 H        -0.6490971837        4.4761892034        4.8856801921
 H        -4.7544971863        6.0540721493        6.4964878801
 H        -5.6576251528        5.0562173077        5.3401152976
 H        -4.7166996138        6.4825176696        4.8559325443
 H        -3.6724341575        3.6987121587        7.3274148663
 H        -2.3682773466        3.1827806014        6.3334474837
 H        -2.3523730796        4.8609337481        7.0634059524
 H         0.9049004700        5.3018247259        3.4574789427
 H        -0.1867940776        6.6923011296        2.8544028644
 H        -3.3928139418        3.3817818216        0.4854192555
 H        -3.7992191016        5.1180521530        0.0330211389
 H        -1.3619764328        7.3473627669       -0.1723840408
 H        -1.2433071939        7.2647240877        1.6755013163
 H        -2.6115625062        6.5736192792        0.7994471675
 H         1.4130378944        4.8639738242        0.7396351259
 H         0.7164760024        5.1587320278       -0.8873295948
 H         1.0511977519        6.5129982439        0.1598002749
 H        -4.9742578207        3.7219142271       -1.3739762252
 H        -3.7483050291        4.4425076099       -2.4043138369
 H        -1.6138928156        3.3942999221       -3.4604602710
 H        -1.6049559879        3.1284657577       -5.2610842124
 H        -2.2635339495        4.5274137003       -4.6352444275
 H        -1.8519821015        0.7112505490       -3.3037638855
 H        -2.9108930077        0.2190738349       -4.6426576998
 H        -3.2656138237       -0.4331502782       -3.0459123091
 H        -5.3042378243        0.2818012967       -2.5733616460
 H        -5.9698638676        1.8677775654       -2.6160954138
 H        -5.6702552692        0.9351737607       -4.0579979449
 Na       -1.7265777528        1.8673342089        0.9814411896
