155

 C         6.7825254975       -5.8576832974       -2.6813912138
 C         5.5311773885       -6.4467033097       -3.2141692429
 C         4.0820900168       -6.3478672233       -2.4176719498
 C         3.0769375282       -5.7042751241       -3.3491708702
 C         2.8684353681       -6.1905420723       -4.7494310024
 C         3.5993314834       -7.8304807716       -2.1864166149
 C         4.0494768237       -5.5805860561       -1.1509442555
 O         5.5644375097       -7.1496136024       -4.1769940221
 O         2.4637061333       -4.7700669876       -2.9394072043
 C         2.7070546438       -4.9959802772       -5.6921683549
 C         3.7229509936       -3.9385857760       -5.5015260760
 C         3.5608291357       -2.5809271779       -6.3147561818
 C         3.0295924990       -1.5491862138       -5.2381264631
 C         3.8155807374       -1.4434055032       -3.8410806998
 O         4.6500003291       -3.9928551512       -4.7139448421
 O         2.0358314734       -0.7922978395       -5.4397638808
 C         4.8983046966       -2.0507248191       -6.8399342325
 C         2.4812109637       -2.7083881516       -7.4816581033
 C         3.4913686102       -0.1904623532       -3.0755667965
 C         2.8171278879       -0.5426649030       -1.6340913627
 C         2.5553341628        0.7042681981       -0.6780226451
 C         1.7234809876        0.3424080110        0.6443280142
 C         2.2583302638       -0.6518751087        1.5746592033
 C         3.8462851130        1.4481835268       -0.1853681562
 C         1.7420034411        1.7519256592       -1.5008121285
 O         2.6060541808       -1.6682213893       -1.3203970912
 O         0.6730538100        0.8855896741        0.9303354080
 C         1.2269640778       -1.6465413499        2.2265076853
 C         1.7872057156       -2.1661566208        3.5918425641
 C         0.7284689129       -3.2030039380        4.3830070791
 C        -0.7988688544       -2.9256232950        4.2958633202
 C        -1.4666926347       -1.9090589158        5.3783308524
 O         2.8565385725       -1.9393687004        4.1072379687
 O        -1.5378224909       -3.5097755159        3.4839133624
 C         0.8716634763       -4.5945313517        3.8214416303
 C         1.0935880543       -3.2487010458        5.8790029528
 C        -2.8406718284       -1.3177701808        4.9039748145
 C        -2.8656790017       -0.8801285161        3.4641653317
 C        -4.2538963153       -0.7380696804        2.7711423582
 C        -4.5192353716        0.7993868869        2.6537802967
 C        -5.6387835100        1.5561542697        3.4652458007
 C        -4.0642403342       -1.2712750868        1.3694326768
 C        -5.4300212476       -1.3650651242        3.5284753485
 O        -1.8450444086       -0.4226865456        2.9230887429
 O        -3.8076411875        1.4153025177        1.8875117987
 C        -5.3963016917        3.0901892442        3.2212857786
 C        -5.6201453280        3.9447441712        4.4431220732
 C        -5.7358454663        5.5129479548        4.2345506499
 C        -4.4381888659        5.7660773255        3.3101808031
 C        -3.0934598362        5.5001708159        4.1031753129
 O        -5.5864338113        3.3787463518        5.5134115319
 O        -4.4935669185        5.9638340777        2.1145864562
 C        -7.0739866493        5.8722527900        3.5776628676
 C        -5.6263767519        6.2336208166        5.6156048944
 C        -1.8905318837        5.8696946742        3.2454502717
 C        -1.5375231797        4.8602873704        2.0658981515
 C        -1.1752737463        5.4032673197        0.6638560422
 C        -1.5690778676        4.2117241022       -0.4335272417
 C        -3.1331544938        3.9708618192       -0.5787670735
 C        -2.0116640418        6.6665164864        0.3957878021
 C         0.3435105570        5.7280050591        0.4114278388
 O        -1.5469073982        3.6163206880        2.2945296541
 O        -0.7414746849        3.6190036593       -1.0399653163
 C        -3.6315128381        3.1877298873       -1.8174164000
 C        -3.1119314752        1.6885413723       -2.0090886242
 C        -3.2417934069        1.1142550004       -3.4630205413
 C        -2.2610117786        2.0513869702       -4.3146344386
 C        -1.1584827025        1.4092218984       -5.0901757424
 O        -2.5883635458        0.9984306166       -1.1075487830
 O        -2.3546459189        3.2507713161       -4.2676946207
 C        -2.8710656399       -0.3797716552       -3.4647533719
 C        -4.7043739262        1.2670844493       -4.0884556962
 H         6.6689537971       -4.7565347544       -2.3574914232
 H         7.1548928341       -6.3025856816       -1.8032860171
 H         7.6111282473       -5.8213957018       -3.3749017144
 H         3.6965878766       -6.8431049384       -5.0385189817
 H         1.9590112322       -6.7440812068       -4.8261968210
 H         4.2232113071       -8.2498015034       -1.3961343219
 H         3.7728234022       -8.5813995655       -2.9821885071
 H         2.5098044961       -7.5976757084       -1.9236161354
 H         4.7331753751       -5.9680616266       -0.3682033383
 H         4.0203327939       -4.5576915159       -1.3902273078
 H         3.1618897037       -5.7805037206       -0.5692198203
 H         2.4401962360       -5.1252744986       -6.7204844465
 H         1.7823283245       -4.4926298524       -5.2949236439
 H         3.5169373226       -2.3080052992       -3.2228399194
 H         4.8525648730       -1.4519731845       -3.9527220160
 H         5.6242773319       -1.9259461231       -6.0803332496
 H         4.7161561904       -1.0751964516       -7.3990806461
 H         5.3803403529       -2.7638552878       -7.5989374808
 H         2.3419800554       -1.7426997660       -7.9780994534
 H         2.8558417556       -3.5075348124       -8.1477914902
 H         1.4538129397       -2.9901613833       -7.1340371006
 H         2.8540899549        0.5073441242       -3.6177262995
 H         4.5120441020        0.2084705535       -2.8913337976
 H         3.1315058203       -1.0816972429        1.0473127436
 H         2.6986544681        0.0523638964        2.2994318726
 H         4.3860375826        2.0113388176       -0.9099603594
 H         4.5855864086        0.6711354359        0.1879784828
 H         3.6997084746        2.1594008283        0.5655370696
 H         1.2484827840        2.5427314130       -0.9128114130
 H         2.2737095849        2.3229745026       -2.2699041881
 H         0.9111863906        1.1793665996       -1.9344760864
 H         0.2358224307       -1.2489689267        2.2560981036
 H         1.1489508312       -2.5216174110        1.5666690036
 H        -1.7128185005       -2.4741824017        6.2203384604
 H        -0.6793993462       -1.1161868724        5.4860823629
 H         1.8671818452       -4.9775059389        3.9648657039
 H         0.6353971904       -4.5630607213        2.7653639734
 H         0.2737394578       -5.4787171159        4.2794806700
 H         0.8833501443       -2.2945192924        6.4158136134
 H         0.4631925586       -4.0141962140        6.3711083935
 H         2.0981325880       -3.6301171345        6.0473283982
 H        -3.0596425186       -0.4165909283        5.4481697924
 H        -3.6658631214       -1.9521920659        5.1797010200
 H        -6.6435427112        1.1999737743        3.1817930383
 H        -5.4142072634        1.2696134441        4.4947315941
 H        -3.2818462200       -0.7876528801        0.7772515019
 H        -5.0654029157       -1.3244633318        0.9277991864
 H        -3.6404568648       -2.2494802910        1.3230295130
 H        -6.2108979043       -1.4227218207        2.8324943612
 H        -5.2340778788       -2.4377242362        3.7569654185
 H        -5.5694117528       -0.9186945765        4.4685995969
 H        -4.4499944230        3.1042208084        2.7817106402
 H        -6.1693280543        3.4411674485        2.5175290029
 H        -3.0040444171        6.0610021351        4.9589734728
 H        -3.0515517663        4.4383755382        4.3398832696
 H        -7.5288728230        6.8398345207        3.8298628840
 H        -7.9375381479        5.2386845489        3.9538791716
 H        -6.8531466882        5.7224200569        2.5984561183
 H        -6.4799578949        5.7468805732        6.2285279539
 H        -4.6806453468        6.2358427456        6.0721970314
 H        -5.9576998792        7.2227572246        5.6741465823
 H        -0.9617258890        5.9888457986        3.9130850237
 H        -2.1508499849        6.7988825998        2.7005307870
 H        -3.4611164763        3.4062938504        0.3168091144
 H        -3.5835829232        4.9119776621       -0.7013577966
 H        -1.8618975459        6.9182437831       -0.6667412294
 H        -1.7413288585        7.5453322816        0.8741300517
 H        -3.0850131182        6.5598589078        0.5991343541
 H         0.2412734437        6.4887810402       -0.3800983439
 H         0.7738250826        6.1983735964        1.3667907604
 H         0.7864691345        4.8346659978        0.0202158165
 H        -4.7351359565        3.1190683931       -1.7971644803
 H        -3.3571049251        3.7423656994       -2.6101482396
 H        -1.5137602567        1.1161498700       -6.0751484997
 H        -0.3878022238        2.1451988460       -5.2286626669
 H        -0.6600917024        0.4676793360       -4.7180001643
 H        -1.8692583269       -0.4970847224       -2.9958436319
 H        -2.7331572730       -0.7896491657       -4.4909686381
 H        -3.5288834148       -0.9703339355       -2.8758041645
 H        -5.4782334297        0.7191612255       -3.5367722830
 H        -4.9122583887        2.4169397639       -4.1330980528
 H        -4.6626120301        1.0037964301       -5.1498182657
 Na       -1.6093368641        1.5218926309        1.0999967052
