155

 C         6.7149099347       -5.8157720072       -2.4238912374
 C         5.4895728434       -6.5394228786       -3.1170494125
 C         4.0916302159       -6.4327014314       -2.4468764205
 C         3.1805443851       -5.6208381967       -3.4936460483
 C         3.0233819763       -6.1657528947       -4.9436831494
 C         3.5984967230       -7.9107547113       -2.2980427753
 C         4.1949373898       -5.7375730869       -1.1130664985
 O         5.6760582175       -7.1989450051       -4.1363742838
 O         2.6320048187       -4.5833962602       -3.1452913673
 C         2.7678042537       -4.9792114755       -5.8719471802
 C         3.7511041748       -3.8390645359       -5.6542541437
 C         3.5606821078       -2.4723913989       -6.3238417267
 C         2.8354092042       -1.5168782399       -5.1999462825
 C         3.6740785349       -1.2698141800       -3.9384690027
 O         4.6808916201       -4.0981494510       -4.8889832057
 O         1.8078322971       -1.0331072212       -5.4681642583
 C         4.9774661715       -1.9309469195       -6.8154212453
 C         2.6772548882       -2.5460753894       -7.5931295073
 C         3.4600270146        0.0845146892       -3.0205633013
 C         2.9675347880       -0.3439718288       -1.6766611507
 C         2.5511851936        0.7945607732       -0.5942546075
 C         1.7886703730        0.2366838409        0.6104600920
 C         2.3025274570       -0.8924940065        1.6141341181
 C         3.8170123511        1.4737278658       -0.0847276097
 C         1.5335035833        1.7552117437       -1.2620447909
 O         2.8689118663       -1.4992534993       -1.3015650455
 O         0.7484128794        0.7294967310        1.0398205462
 C         1.1418539173       -1.5289456152        2.3185547377
 C         1.5944475723       -2.2511754600        3.6090078959
 C         0.7292706441       -3.2491763868        4.3797190792
 C        -0.8094543795       -2.8174406077        4.3241385005
 C        -1.3559770602       -1.7027048163        5.2535683450
 O         2.6426369027       -2.0019648801        4.1582105319
 O        -1.5749031889       -3.3076383977        3.5669725170
 C         0.9597406364       -4.6374745619        3.6373109706
 C         1.2858155447       -3.2834360561        5.7974693721
 C        -2.7922800714       -1.4427668224        4.8602744701
 C        -2.8739771126       -0.8923847839        3.4411853783
 C        -4.2416286656       -0.7167544255        2.7246006887
 C        -4.4567974449        0.8694348684        2.4589686950
 C        -5.6901572166        1.5396492142        3.1853670642
 C        -4.0950650783       -1.3911036900        1.3502511995
 C        -5.4007242610       -1.3922340802        3.4203438211
 O        -1.9013340601       -0.3622249636        2.9876650317
 O        -3.6460037018        1.5435996361        1.8907743088
 C        -5.8162174702        3.0540112370        3.0041980469
 C        -5.8190253226        3.8958209929        4.3094999336
 C        -5.8611632036        5.5197535317        4.1496255668
 C        -4.5626321432        5.8141400160        3.2871467675
 C        -3.2007062995        5.6438678321        3.9920618069
 O        -5.5300919901        3.3940082282        5.3463208218
 O        -4.7254508379        6.0838121508        2.1065682363
 C        -7.1039260894        5.8961623688        3.3414465316
 C        -5.7771769785        6.1821874092        5.6051208360
 C        -1.9242016054        5.9221552114        3.1096869622
 C        -1.8124094836        4.8268800436        2.0388707665
 C        -1.2715270809        5.3843934306        0.6386374224
 C        -1.6854204211        4.2420885010       -0.3503291155
 C        -3.2023987547        3.9600919582       -0.4813084657
 C        -1.9208979051        6.6603009774        0.0796951671
 C         0.3651045869        5.4877485719        0.8838743034
 O        -1.8919738972        3.6598710067        2.2199441389
 O        -0.8274641953        3.5195896492       -0.8447677965
 C        -3.6332890562        3.0506128495       -1.6597536519
 C        -3.0036376698        1.6744926143       -1.7546127827
 C        -3.0568054508        1.1278008729       -3.2252670956
 C        -2.0261428977        1.9332097283       -4.1133989463
 C        -0.9368132547        1.1796021636       -4.8450647637
 O        -2.6045649952        0.9727054106       -0.8466554003
 O        -2.1417266464        3.1624850470       -4.2254770259
 C        -2.8725490799       -0.4666138211       -3.2713289225
 C        -4.5223536700        1.4529521633       -3.8456726564
 H         6.6410614926       -4.9576272971       -1.8562615849
 H         7.1703939510       -6.5552661484       -1.7009698639
 H         7.5290482182       -5.5305809613       -3.0559874519
 H         3.8908074440       -6.6954627917       -5.3393883238
 H         2.1713904217       -6.8830942157       -5.0270406413
 H         3.8420731858       -8.2299009681       -1.3458113219
 H         4.2040431464       -8.5612874411       -2.8500354917
 H         2.6310644087       -7.9538275632       -2.5638883916
 H         4.3823343193       -6.4098598819       -0.3253664666
 H         4.7802640769       -4.8028301441       -1.1111632910
 H         3.2406824865       -5.3562135025       -0.7334737533
 H         2.9097973802       -5.2457476881       -6.9405794466
 H         1.7514608232       -4.6431398878       -5.8504051258
 H         3.3205059473       -2.0781800048       -3.3252787098
 H         4.7350943818       -1.5578627564       -4.2161263575
 H         5.6800627558       -1.6319643099       -6.0338008266
 H         4.9102048528       -1.2516519272       -7.6486869946
 H         5.4725386596       -2.7963354620       -7.1402306762
 H         2.6421067959       -1.5483250303       -8.0547976077
 H         3.2503819378       -3.2514920291       -8.2189984418
 H         1.6504801519       -2.8711481278       -7.4658890405
 H         2.6404420294        0.6038322048       -3.5867195171
 H         4.3126923582        0.7500838345       -2.8937817313
 H         2.8460344754       -1.7104490462        1.1074836812
 H         2.9615529613       -0.5200395357        2.4544322575
 H         4.4555143623        1.9950837977       -0.8862971693
 H         4.4743300554        0.8136861104        0.4879677882
 H         3.5700232411        2.3520719080        0.6063092211
 H         0.7897559446        2.0735557115       -0.5644573111
 H         1.9738089315        2.7118193858       -1.4543248972
 H         1.1027956320        1.3734089910       -2.1741001485
 H         0.2655597118       -0.8769007698        2.6750091026
 H         0.6140708291       -2.2277516245        1.6273145277
 H        -1.3915567578       -2.2747039790        6.3061930176
 H        -0.6621763095       -0.8761201515        5.2511615924
 H         1.8829717586       -5.1463630831        3.9528880931
 H         0.9120001138       -4.5863756747        2.5365210012
 H         0.2763253230       -5.3322473725        3.9436096883
 H         1.1763085374       -2.3148348326        6.2250071466
 H         0.8884307445       -3.9998398780        6.4687223261
 H         2.3671380828       -3.5270751733        5.7688106081
 H        -3.3046987225       -0.7517368817        5.6055529556
 H        -3.4512563922       -2.3276616022        5.0478497877
 H        -6.5162314357        1.0388221568        2.6758806939
 H        -5.6650857299        1.2078460351        4.2348938965
 H        -3.1140116428       -1.4184519118        0.9556171135
 H        -4.8989797428       -1.0721365114        0.7366803427
 H        -4.1538198430       -2.4804725361        1.3983476613
 H        -6.2590825071       -1.2576282597        2.7458656626
 H        -5.2585163691       -2.4425572265        3.3117099507
 H        -5.5641030283       -1.0372925858        4.4766462392
 H        -4.8037042265        3.3472172738        2.4829018793
 H        -6.6798519547        3.2736775571        2.3780147669
 H        -3.0556734770        6.4025053275        4.8628288236
 H        -3.1173404903        4.5874053418        4.3704167031
 H        -7.7230443054        6.5763161072        3.9207326691
 H        -7.7753416621        5.0581492313        3.3549506821
 H        -6.8241562005        6.2755869976        2.3054077158
 H        -6.6726886081        6.4677029796        5.9593378290
 H        -5.2426654332        5.4947582291        6.3332911037
 H        -5.1666925219        7.1318873774        5.7048690266
 H        -1.1033238107        5.8767112548        3.7698310467
 H        -1.9124230332        6.8647436089        2.5819915917
 H        -3.3948602955        3.2562138654        0.3234062440
 H        -3.7661443978        4.9477808221       -0.5279745630
 H        -1.7638955469        6.8050266640       -0.9805382018
 H        -1.5253561610        7.6038832182        0.5972550902
 H        -2.9904701713        6.8057783653        0.2973690386
 H         0.8655524165        5.1603360205        0.0064080473
 H         0.4682504286        6.4613340404        1.1753774662
 H         0.7199007968        4.7877536619        1.6190541563
 H        -4.6790223585        2.7892528608       -1.5614873106
 H        -3.4272010302        3.5421848384       -2.7059674652
 H        -1.3665712410        0.6331568229       -5.6754838217
 H        -0.0504442080        1.7640465428       -5.1848147830
 H        -0.4456784978        0.4623851445       -4.2487379882
 H        -1.8657987133       -0.7820654259       -3.0482777005
 H        -3.1277761494       -0.9687361047       -4.2014367258
 H        -3.5302720044       -0.9373750832       -2.4527373123
 H        -5.2123387769        0.8038337746       -3.3619650490
 H        -4.7860155600        2.4290943510       -3.6840408934
 H        -4.5726800923        1.3636105880       -4.9093366407
 Na       -1.5019903329        1.4727382492        1.0535690079
