155

 C         6.4183547164       -5.4258850863       -2.8270444067
 C         5.7061145535       -6.7801314618       -2.8739960849
 C         4.1770204649       -6.8860690869       -3.4721138908
 C         3.9244571125       -5.4606496237       -4.1789631061
 C         4.2880337191       -5.3800634270       -5.6325813177
 C         4.1330704425       -8.1098844009       -4.3051181272
 C         3.1394196813       -7.0082078502       -2.3317722377
 O         6.1395046745       -7.8534807820       -2.5247642517
 O         3.6037297781       -4.5178416215       -3.4954170106
 C         3.8971684299       -4.0707743742       -6.2862461309
 C         4.5666797533       -2.8084337862       -5.6277895798
 C         3.7759627445       -1.4374977571       -5.6904097025
 C         3.0920442075       -1.0460381523       -4.3363548358
 C         3.9951949482       -0.5947435653       -3.1620202431
 O         5.7485356557       -2.9532614733       -5.3692894042
 O         1.8776863881       -1.0461718882       -4.3162985534
 C         4.8510132853       -0.2872295305       -6.1128131869
 C         2.6798770508       -1.5017203743       -6.8034992971
 C         3.1192581128       -1.0600128910       -1.8663298912
 C         3.5831673572       -0.1189915735       -0.6875233007
 C         2.5930011812        1.0110215977       -0.0945871419
 C         1.6633365806        0.3771962331        0.8939213297
 C         2.1906151570       -0.4654466858        2.0828928741
 C         3.6274444762        1.9640990592        0.5740377486
 C         1.9377325148        1.8178829917       -1.2117020692
 O         4.6122598338       -0.4002666052       -0.0703311938
 O         0.4386218070        0.5858458170        0.9089646120
 C         1.0276219402       -1.3916944475        2.3664961431
 C         1.1173838222       -2.0404238144        3.7976279766
 C         0.2884827450       -3.3274215142        4.2149222330
 C        -1.1772994950       -2.7512091464        4.5187456213
 C        -1.1516719400       -1.5929031473        5.4948618168
 O         1.9043800836       -1.4887333554        4.5687962935
 O        -2.1379162515       -3.1131881409        3.8346986744
 C         0.1781800557       -4.3617051555        3.0344553030
 C         0.9880418591       -3.9207859579        5.3759884221
 C        -2.4559473583       -0.7545706785        5.3242295683
 C        -2.7503270330       -0.3290856170        3.7802731506
 C        -4.0185764850       -0.7911198163        2.9634944807
 C        -4.6743929496        0.5419789831        2.4862836478
 C        -6.2083786565        0.7647495282        2.7141435244
 C        -3.4410041296       -1.3529434580        1.6261996980
 C        -4.9218787930       -1.7693828896        3.6982233554
 O        -1.7979097337        0.1998996672        3.2544613596
 O        -3.9154954178        1.4704751810        2.1632462330
 C        -6.6512547862        2.1710110408        2.1683870202
 C        -6.6773308980        3.3086133229        3.3075000788
 C        -6.5869158926        4.7877235007        2.8792026597
 C        -5.1470637496        4.8995391596        2.5476356028
 C        -4.0804237197        5.0236522648        3.6395680923
 O        -6.6718493721        3.0092436081        4.4884344268
 O        -4.6843334751        4.8431988534        1.4071913472
 C        -7.4211720133        5.0004615546        1.5935496202
 C        -7.0974730502        5.7324208357        4.0016731187
 C        -2.7340461372        5.6700590438        3.1752610619
 C        -1.8834486891        4.6628141349        2.3440403064
 C        -1.0092133634        5.1975339706        1.0463647851
 C        -1.3634282820        4.2180365544       -0.1784483265
 C        -2.6043738363        4.4416049856       -0.9441352654
 C        -1.2441479236        6.6350686801        0.6193377809
 C         0.4608553881        4.9382275420        1.3308256511
 O        -1.8704260294        3.5039992217        2.6248035915
 O        -0.4568670282        3.5102371656       -0.6239118123
 C        -2.6849397634        3.6775912985       -2.3061221040
 C        -3.0109599162        2.1869835531       -2.0107101996
 C        -3.3694014653        1.1398719595       -3.1100412749
 C        -2.0499123104        0.9251544332       -4.0473785942
 C        -0.9145557164       -0.0790826120       -3.7270714487
 O        -2.8798998441        1.8025812336       -0.8593294081
 O        -1.9814894165        1.5493195821       -5.0398974003
 C        -3.6757512445       -0.2618672321       -2.4786325405
 C        -4.5579740937        1.6087252645       -3.8465216848
 H         6.7011279333       -5.0555481399       -3.7787537735
 H         5.8233579512       -4.6250369250       -2.3017912787
 H         7.3560911124       -5.5097565182       -2.2682580735
 H         5.3400758057       -5.5213015032       -5.8031892702
 H         3.7599658222       -6.2062514951       -6.1199772848
 H         4.3095335406       -9.0161133413       -3.6617250716
 H         4.9365958322       -8.1023604273       -5.1042908037
 H         3.2093744332       -8.2467850319       -5.0184632200
 H         3.2029814802       -7.9798854650       -1.9351376808
 H         3.1446157380       -6.1578343255       -1.7249369348
 H         2.1089357384       -7.0134126502       -2.6143761243
 H         4.0345444839       -4.1020587279       -7.3955183764
 H         2.8216823969       -3.9529338349       -6.1399404831
 H         4.9737431624       -0.9650146615       -3.1521968162
 H         4.0533830355        0.4725305419       -3.1089748573
 H         5.3779619779        0.0337942422       -5.2480268339
 H         4.3088707129        0.5918471484       -6.5660161989
 H         5.6876728862       -0.7036119926       -6.7159573220
 H         2.1676781578       -0.5650733019       -6.8878873875
 H         3.0904914877       -1.6645807593       -7.7731143129
 H         1.9473669601       -2.2320569507       -6.6132549476
 H         3.5747945157       -1.9840517523       -1.5293278506
 H         2.0321077400       -1.0693049454       -2.0643774584
 H         3.0377201340       -1.0464512623        1.7903623646
 H         2.5653071493        0.1602283927        2.9178079575
 H         4.5518771046        2.1156195221       -0.0627171423
 H         4.0730196967        1.8299153782        1.6274582544
 H         3.2031769363        2.8957707965        0.7372769551
 H         1.0743762516        2.2115306837       -0.6980597158
 H         2.6719165311        2.5640056218       -1.5367470864
 H         1.6954073188        1.0809231880       -1.9583594908
 H         0.1093091793       -0.8120903719        2.3211072167
 H         0.9546746007       -2.1064732359        1.5701999678
 H        -1.1501345288       -1.9995735501        6.5494885066
 H        -0.3015565434       -1.0187942284        5.2792112545
 H         1.1432019221       -4.7352445867        2.7053440328
 H        -0.2922700132       -3.7512794382        2.2382754519
 H        -0.4900663504       -5.1228565583        3.3796426231
 H         1.4287598894       -3.1544586150        5.9898288646
 H         0.4993598560       -4.6339860404        6.0023385389
 H         1.9188959318       -4.4526408604        5.0166529261
 H        -2.2364157032        0.1850460212        5.8430383488
 H        -3.3115120873       -1.2772365613        5.7321390978
 H        -6.7804758810        0.0044951832        2.2045255372
 H        -6.3854347379        0.7501079569        3.7846236808
 H        -2.6969587877       -0.7337178426        1.1350079810
 H        -4.1103242307       -1.7241741736        0.8396510413
 H        -2.7527178527       -2.1581021782        1.9301721238
 H        -5.5289047606       -2.2492168920        2.9294316684
 H        -4.3929671230       -2.5931594519        4.1050919616
 H        -5.5993397605       -1.3445127450        4.4790708206
 H        -6.0679218085        2.6367553057        1.4077238461
 H        -7.6769159563        1.9925763427        1.8220997625
 H        -4.4163386382        5.6361401478        4.5733877474
 H        -3.9523001249        3.9780834507        4.0070186205
 H        -7.3555653463        6.0388878185        1.3241635037
 H        -8.4961078945        4.8658717630        1.7607244440
 H        -6.8696283352        4.5909499406        0.8006967869
 H        -7.9173739051        6.4735346538        3.6416529153
 H        -7.4762042943        5.1533314605        4.8277263623
 H        -6.2856757711        6.3208945417        4.3821088048
 H        -2.2757189852        5.9674588621        4.1164810023
 H        -3.0004447681        6.4923250904        2.5324226749
 H        -3.5776510763        4.3282392879       -0.3960395653
 H        -2.6739313760        5.5032113989       -1.0753358623
 H        -0.7819579609        6.6784772093       -0.3293556059
 H        -0.8036265248        7.3590394482        1.3559356798
 H        -2.2705365354        6.8844642532        0.4387806506
 H         0.8010771874        5.4772675756        2.1374181379
 H         0.6532535408        3.8685872818        1.6185046207
 H         1.1241110311        5.3191069840        0.6384428174
 H        -3.3909622499        4.2886240754       -2.9105701912
 H        -1.6861283138        3.7371898546       -2.9080760559
 H        -1.1778274264       -1.0873304585       -4.0734365526
 H         0.0460743920        0.2622777238       -4.2113896144
 H        -0.8609523990       -0.3399571313       -2.6834263252
 H        -2.8139015765       -0.7156853566       -2.0436629400
 H        -4.1584692427       -0.9238275914       -3.1599565821
 H        -4.4175467852       -0.1189263455       -1.6680319049
 H        -5.3968776802        1.7359145911       -3.1586837474
 H        -4.3151419366        2.6307396275       -4.3537311690
 H        -4.8436126135        0.8774154550       -4.6022837980
 Na       -1.7175993561        1.5219625602        1.1183039447
