155

 C         6.3765962099       -5.4483952195       -2.7017809255
 C         5.7630383504       -6.8269094391       -2.7892238531
 C         4.2761904658       -6.8677386220       -3.5812056786
 C         4.0059838757       -5.4726436010       -4.2138715509
 C         4.2627261883       -5.3133671730       -5.7308634516
 C         4.1897746817       -7.9966234193       -4.6788743786
 C         3.2380470291       -7.0886996297       -2.4524894615
 O         6.2105302673       -7.8218802212       -2.3744686446
 O         3.6852449090       -4.4567162253       -3.6038467260
 C         3.9379475855       -3.8670803763       -6.2477384913
 C         4.5108377907       -2.7149596200       -5.5327430582
 C         3.7561216066       -1.2865609801       -5.6827928102
 C         3.1141431255       -1.1538139838       -4.2950327494
 C         3.9384118426       -0.7454163608       -3.0372039529
 O         5.4741269518       -2.7068231351       -4.7603243258
 O         1.9102890022       -1.1794849590       -4.2027803418
 C         4.8850899338       -0.2018951040       -5.8824101146
 C         2.8044666838       -1.2256574558       -6.9437055230
 C         3.3524862389       -1.0151606018       -1.6931124894
 C         3.6721386287       -0.1633850196       -0.5020699983
 C         2.6889722446        0.9829238138       -0.0611643235
 C         1.6220413333        0.4891943808        1.0205337780
 C         2.1760290310       -0.4668663223        2.1033470175
 C         3.5109342643        2.0927087274        0.6573951635
 C         1.8814373989        1.5346008670       -1.2773585977
 O         4.5826924173       -0.4640825813        0.2104631512
 O         0.5250686768        0.9630719083        0.9116628185
 C         1.4188561547       -1.7555774357        2.2931399894
 C         1.3286221371       -2.1450701427        3.7485300551
 C         0.4106995168       -3.3572304670        4.1662204655
 C        -0.9784971304       -2.8010620886        4.4014580381
 C        -1.1866101700       -1.6346433357        5.5082520918
 O         1.7722874521       -1.4731777747        4.6827663153
 O        -1.9176480594       -3.3767849898        3.9375036524
 C         0.3908309001       -4.3880748530        3.0927098771
 C         0.8147098602       -4.0493135951        5.6064485254
 C        -2.5031796349       -0.8584613247        5.2143969043
 C        -2.5566149388       -0.2690987185        3.8210524669
 C        -3.8891555227       -0.6105276704        2.9354270060
 C        -4.6746067131        0.7238411953        2.5306323501
 C        -6.1637510522        0.8133682652        2.6219276668
 C        -3.4128057706       -1.3940615921        1.6708622861
 C        -4.8933561428       -1.5941830779        3.7367147547
 O        -1.6567600641        0.4916502223        3.4112034689
 O        -4.0455852141        1.6384243445        2.0408453503
 C        -6.7335246510        2.1178505137        2.1027873689
 C        -6.7374838729        3.2178579191        3.1384945408
 C        -6.6004005228        4.7324239040        2.7264117199
 C        -5.0314339367        4.8036824765        2.3386012142
 C        -4.1246419571        4.9341096196        3.5193067807
 O        -6.7167313371        2.9710513103        4.3202823442
 O        -4.6710175889        4.6503457996        1.1808452252
 C        -7.4275546234        5.1073805333        1.4786395380
 C        -7.0038067175        5.7075783078        3.8738193897
 C        -2.6471331155        5.4466634379        3.1255520876
 C        -1.9161110175        4.5131828941        2.2496045739
 C        -1.1583156006        5.1582922975        1.0536802707
 C        -1.3359456925        4.3250965683       -0.3274689947
 C        -2.6452047759        4.4570578205       -1.0878509122
 C        -1.4978882365        6.6626387493        0.8551595114
 C         0.3287786639        4.9389868595        1.6597837282
 O        -1.9570666097        3.3042372804        2.5385802655
 O        -0.6048939398        3.4235848402       -0.6610498696
 C        -2.6695881424        3.5022653223       -2.2808021802
 C        -2.9241390802        2.0564709362       -1.9686955893
 C        -3.3639793920        1.2088018239       -3.1831426108
 C        -2.1207562493        0.9650255962       -4.1868212336
 C        -1.2064131498       -0.1155650830       -3.6962041129
 O        -2.9528352212        1.5120519262       -0.8858360469
 O        -2.1064847516        1.5571024433       -5.2513532731
 C        -3.9682391725       -0.0891343308       -2.6007014526
 C        -4.4705091039        1.9643823711       -3.9848728325
 H         6.5830861327       -5.0360272027       -3.7081939745
 H         5.7035562761       -4.7659898461       -2.1741011702
 H         7.3047908208       -5.4029116466       -2.1891328015
 H         5.2881240707       -5.6377716706       -6.0265491270
 H         3.5492931397       -5.9569548554       -6.2551525000
 H         4.4696988503       -8.8852884706       -4.1622398151
 H         4.8569610440       -7.8108785795       -5.4885295544
 H         3.2648896370       -8.2291405755       -5.0460347220
 H         3.7710257363       -7.5968255602       -1.6408732971
 H         2.6731598726       -6.1240064015       -2.1765899742
 H         2.4695666484       -7.8686006916       -2.6356469616
 H         4.3016289999       -3.6842652229       -7.2440953511
 H         2.8552892398       -3.7354224488       -6.4260911225
 H         4.9074844712       -1.3753873247       -3.0034909369
 H         4.2024429066        0.3328030899       -3.0791824560
 H         5.8072723653       -0.3566296298       -5.3547626515
 H         4.5206081595        0.8132774559       -5.6052978943
 H         5.0596833748       -0.1316094462       -6.9176114806
 H         2.6793040990       -0.2192804885       -7.3626915084
 H         3.1964034961       -1.7812312950       -7.7883167941
 H         1.7769819773       -1.5581379462       -6.7267938440
 H         3.6372698629       -2.0486599427       -1.4595976698
 H         2.2437150288       -0.9367423259       -1.6931159259
 H         3.2749330405       -0.6050221154        1.9019304997
 H         2.1694975748        0.1149919684        3.0232676500
 H         4.1966134910        2.5558489854       -0.0029700355
 H         4.1837285168        1.6826099044        1.3267147487
 H         3.0277017574        2.8411837900        1.3729051327
 H         0.8615003924        1.3621164876       -1.0066846327
 H         2.1809714347        2.5552493077       -1.4067957869
 H         2.1862620899        0.9565873414       -2.1548377855
 H         0.3878812801       -1.6611092306        1.8187159542
 H         1.8575511640       -2.6913233321        1.8111322572
 H        -1.3777476271       -2.1445923943        6.3904046043
 H        -0.2649038765       -0.9325924180        5.5196396216
 H         1.5019341165       -4.4447102916        2.9230670150
 H        -0.0996753290       -3.9790454895        2.2201779497
 H        -0.0878969713       -5.3128530927        3.4365123404
 H         1.1973225159       -3.3684589350        6.3977344169
 H        -0.0513901294       -4.6526371099        5.9999988684
 H         1.5839662694       -4.7726346573        5.5235387546
 H        -2.6650185945       -0.0138215457        5.9267407661
 H        -3.3378657176       -1.5828341891        5.2622886000
 H        -6.6128441324        0.0521437375        1.9753497607
 H        -6.3607435527        0.6646356127        3.6966999600
 H        -2.9671974107       -0.7557642438        0.8976503191
 H        -4.2871870775       -1.8590894613        1.2248827257
 H        -2.5977842703       -2.1017322091        1.7611058600
 H        -5.9296955558       -1.7818400517        3.4340884685
 H        -4.4323629232       -2.5849789087        3.8107943775
 H        -5.1535442839       -1.2186125813        4.7123960832
 H        -6.1919762221        2.5451126245        1.2012380297
 H        -7.7914452183        1.8529730179        1.8707211118
 H        -4.4942779410        5.6137657956        4.2198112307
 H        -4.0795594236        3.9515951369        4.0335331005
 H        -6.9917524486        5.9432537358        0.8692160676
 H        -8.4810359150        5.3626116840        1.7134121184
 H        -7.2836699049        4.3470675399        0.7418722868
 H        -7.8824606344        6.2263871407        3.7296008689
 H        -7.2068118383        5.1047462626        4.8226761451
 H        -6.0792430811        6.3747985038        3.9955560664
 H        -2.2979842725        5.3460262638        4.1360728001
 H        -2.6530885597        6.4531164490        2.7347323450
 H        -3.3723355564        4.1154056815       -0.3610482743
 H        -3.0688876196        5.4765890663       -1.3037515274
 H        -0.8847587677        7.0889548635        0.0156274256
 H        -1.2011631090        7.1561217085        1.7460867076
 H        -2.5451140676        6.7992697650        0.5482769905
 H         0.8267947274        5.8994902920        1.9000597988
 H         0.4505786868        4.1893334123        2.4516875392
 H         1.0089674591        4.7160470746        0.8600233860
 H        -3.4282823275        3.8707106439       -2.9460644479
 H        -1.7576307941        3.6383086034       -2.8129181183
 H        -1.4250134281       -1.0618004577       -4.1435877310
 H        -0.1945988434        0.1340833833       -3.9172566590
 H        -1.3017441068       -0.3694078410       -2.6349096603
 H        -3.3672244725       -0.5962173464       -1.7961453300
 H        -4.1010284377       -0.7646311835       -3.4777651622
 H        -4.9391377066        0.0733006150       -2.1694372083
 H        -4.9798657189        2.7694322112       -3.3866626827
 H        -4.0434517162        2.3951486521       -4.8294559150
 H        -5.2663640986        1.2335622854       -4.2763035738
 Na       -1.8517790606        1.6128147232        1.1668957204
