155

 C         5.6425735077       -5.2401428116       -2.0532174482
 C         5.8294690297       -6.4352831713       -3.0339440322
 C         4.6933550622       -6.7664020690       -4.0539573617
 C         3.9907447257       -5.4004736332       -4.5401880549
 C         4.6443058963       -4.6732407108       -5.8388118697
 C         5.3102057482       -7.5030594969       -5.2223727827
 C         3.6710964952       -7.5921522506       -3.1928665461
 O         6.8872670677       -7.0462506507       -2.9096219029
 O         2.9409778438       -4.9925938537       -4.0686531354
 C         4.0670827300       -3.2646051297       -6.0106327714
 C         4.8756224689       -2.2158131515       -5.1684201841
 C         4.2486094562       -0.8565511518       -4.7352568253
 C         3.3758283526       -0.8946544781       -3.4109529665
 C         3.8870289560       -1.6093317559       -2.1543752550
 O         6.0082215200       -2.4800334754       -4.8774380299
 O         2.2938989341       -0.2982144412       -3.4459182116
 C         5.3821844605        0.1072018127       -4.4111340168
 C         3.4333533507       -0.2413069257       -5.9126342210
 C         2.8119026104       -1.5214362288       -1.0793652355
 C         3.4565606198       -0.7248273401        0.1455820952
 C         2.7374522151        0.6716033293        0.3417381062
 C         1.3537166791        0.4398905165        1.2240470624
 C         1.4631586157       -0.1323890784        2.6708363345
 C         3.4983669791        1.6620303281        1.2249283675
 C         2.5304983413        1.3729581793       -1.0402251472
 O         4.3567791599       -1.1800834423        0.8372351197
 O         0.2403005839        0.6570996963        0.7565993115
 C         2.0843446178       -1.5259136915        2.8031861447
 C         1.8533640138       -1.9032562837        4.2396037727
 C         0.8167659641       -3.0887060670        4.6647352561
 C        -0.6691786163       -2.6142119118        4.2157389075
 C        -1.3674050650       -1.7167825196        5.1731126762
 O         2.3185605694       -1.2411993197        5.1566670468
 O        -1.2231538235       -3.0474926719        3.2200411451
 C         1.1622962220       -4.2776414620        3.8043884947
 C         0.9902826141       -3.3662606679        6.1872879628
 C        -2.8226232882       -1.4019823096        4.6307665541
 C        -2.9285543059       -0.9572100520        3.1976781695
 C        -4.2427800996       -1.1228257307        2.3877180718
 C        -4.7780199965        0.3139701440        2.0550636562
 C        -6.2910001144        0.5204667257        2.4078098046
 C        -3.9014142952       -1.8809564363        1.0885190401
 C        -5.2397363728       -1.8993315594        3.2677344328
 O        -2.0334424617       -0.2957343946        2.7024434057
 O        -4.1835937959        1.2657974050        1.5738491559
 C        -6.7891162005        1.7873209174        1.7523235984
 C        -6.4412570496        2.9333700235        2.6990565526
 C        -6.7533911505        4.4171335285        2.1810247128
 C        -5.3229179864        5.0005943225        2.2610409583
 C        -4.5779621760        5.4840031588        3.5213920784
 O        -6.0719589463        2.8091815224        3.8321661920
 O        -4.7481978471        5.0337173632        1.2106201637
 C        -7.2520551531        4.3523534979        0.7765492409
 C        -7.6649422575        5.1063107132        3.1996195218
 C        -3.1179152124        5.8049571201        3.1634414601
 C        -2.4852404966        4.7640864296        2.2067117294
 C        -1.5267762571        5.3243582364        1.0492948358
 C        -1.2733486913        4.2554167258       -0.0410738854
 C        -2.2015004562        4.1553152990       -1.2604630387
 C        -1.9525979992        6.6795730715        0.3028482054
 C        -0.1372504915        5.6065591163        1.9701455909
 O        -2.6573727248        3.5795300690        2.3945936083
 O        -0.3522760920        3.4219657601        0.0746733227
 C        -1.8917861136        3.0733392393       -2.3362486232
 C        -2.7958450731        1.8565513237       -2.1932645168
 C        -3.7340162227        1.4282273895       -3.3719360914
 C        -2.6508902324        0.8352989890       -4.3878262165
 C        -2.4481969725       -0.6690857526       -4.4405151385
 O        -2.8054591173        1.1376031064       -1.1921478374
 O        -1.9293555965        1.6878241903       -4.9248756853
 C        -4.7821500469        0.4162284765       -2.8368682231
 C        -4.4549508529        2.6362367941       -4.0193670823
 H         5.8446511772       -4.3105455060       -2.4981240656
 H         4.5578149571       -5.1750225377       -1.7617861685
 H         6.2515409970       -5.4397027933       -1.1158746685
 H         5.7504248358       -4.6474529772       -5.8401782001
 H         4.3750889606       -5.2068014371       -6.7287267442
 H         5.7141983386       -8.4375137345       -4.8500214465
 H         5.9529042670       -6.8970525088       -5.8481940837
 H         4.4912201131       -7.6404556919       -5.9922996769
 H         3.8352785109       -7.3694500625       -2.1248301484
 H         2.6396605084       -7.4764428924       -3.5912492847
 H         3.9744305321       -8.6525808585       -3.3257128958
 H         4.0605643015       -3.0328302481       -7.0620466104
 H         3.0020143445       -3.2541534799       -5.6177449274
 H         4.2783201471       -2.5908080460       -2.4536719821
 H         4.7747451260       -1.1929603923       -1.8469898408
 H         6.2266718649       -0.2140478271       -3.6800361255
 H         5.0540335708        1.1025385847       -4.2503825404
 H         6.0211476642        0.1223195396       -5.3417156260
 H         2.8502256514        0.6379026960       -5.5014496225
 H         4.1226864084        0.2188501248       -6.6481425708
 H         2.7221351173       -0.9242100434       -6.4140071644
 H         2.4544721915       -2.4571271711       -0.7164351165
 H         1.9219977096       -0.9972989128       -1.5562071616
 H         2.1258448526        0.6019402267        3.1644498918
 H         0.5488950541       -0.0554333611        3.2119057077
 H         2.8960855222        2.5595271471        1.4154826533
 H         4.3834594296        2.1289859111        0.6570684084
 H         3.8817672533        1.2256789368        2.1215851768
 H         3.3012735843        1.1188429349       -1.7650066640
 H         1.5738161159        0.9716360756       -1.3873854040
 H         2.4874211064        2.4596372325       -1.0478766472
 H         1.3914995918       -2.1862882930        2.2810284206
 H         3.0698605061       -1.6207870042        2.5172219084
 H        -1.4042152207       -2.0564575981        6.1707835035
 H        -0.8027927103       -0.7863090543        5.3474738421
 H         2.0063547328       -4.7646990053        4.2094697408
 H         1.3533414409       -3.8661301907        2.8204389130
 H         0.3085895344       -4.8878723731        3.8080021103
 H         0.8955129991       -2.4462504142        6.7244109218
 H         0.3676691354       -4.1372983435        6.6496923650
 H         2.0336316185       -3.7049884998        6.3118938357
 H        -3.3307837729       -0.5486815121        5.0726196269
 H        -3.4485096777       -2.2495498842        4.8964394947
 H        -6.8859857284       -0.3550802146        2.1628187454
 H        -6.4479752889        0.6203595911        3.5058797648
 H        -3.3667549223       -1.2415345125        0.4042318029
 H        -4.6236951348       -2.3835929302        0.4758520972
 H        -3.1717247906       -2.6403530685        1.3560333288
 H        -6.1077601671       -2.2610703070        2.6579325088
 H        -4.8195777590       -2.8457767754        3.5422103501
 H        -5.3927235886       -1.4306032013        4.2582382505
 H        -6.3404751984        1.9391096943        0.8147123270
 H        -7.8820543111        1.7934471032        1.5790897501
 H        -5.1490052207        6.2854681146        4.1525275596
 H        -4.4312672367        4.6235143033        4.2345562225
 H        -7.4075734892        5.3312630480        0.4959111468
 H        -8.1916120968        3.8993261303        0.6753565966
 H        -6.4828990382        4.0300980088       -0.0617259751
 H        -8.7116168747        4.6526779658        3.1618740993
 H        -7.1451223080        4.9938938955        4.0796708353
 H        -7.7364337663        6.1129387624        2.9714402536
 H        -2.5533997549        5.9558563993        4.0874809620
 H        -3.0619013559        6.8007822191        2.6979631930
 H        -3.1388439969        3.9772975373       -0.7515216364
 H        -2.1458241580        5.1750185669       -1.6407488810
 H        -1.1210527615        6.8810166278       -0.3932315345
 H        -2.1786967498        7.4753553271        1.0587751182
 H        -2.8715527813        6.5061483275       -0.2429942254
 H         0.1979548650        6.6556166226        1.8543206943
 H        -0.2769849205        5.3976903801        2.9720244823
 H         0.5995572788        4.8332596640        1.5649369260
 H        -1.9584055750        3.5141118990       -3.3276235393
 H        -0.8301056964        2.5731101345       -2.2275362391
 H        -3.3253321144       -1.1023220924       -4.8920564147
 H        -1.5856440155       -1.0015329420       -5.0598291669
 H        -2.3030418527       -1.0399889834       -3.4334368622
 H        -4.1521281170       -0.1795818601       -2.1405127480
 H        -5.3421170692       -0.1852760618       -3.5551304255
 H        -5.4902095124        1.0056006570       -2.2798052109
 H        -5.1680884572        3.0031919501       -3.3746072620
 H        -3.7350165352        3.4386411947       -4.2496675697
 H        -4.9020424490        2.3956494357       -4.9173116359
 Na       -1.9622219718        1.5155335058        1.0680306643
