155

 C         5.4571596741       -5.3733764074       -1.9998386194
 C         5.9242610078       -6.1808137866       -3.1214473212
 C         4.7751357004       -6.5635357336       -4.1656437769
 C         4.0945039636       -5.3314824568       -4.5740131829
 C         4.5606171732       -4.5032637443       -5.7971079367
 C         5.5711948746       -7.3535349679       -5.3192064205
 C         3.7485569610       -7.6278174869       -3.6098375904
 O         7.0411523777       -6.4429494850       -3.4921635518
 O         3.1290421265       -4.9077522178       -3.9467968140
 C         4.0352347256       -3.0860761520       -5.6765680196
 C         4.9879367292       -2.1411044492       -4.7623928237
 C         4.4210638046       -0.6922710684       -4.4631952568
 C         3.3184129655       -0.8908503547       -3.4172546724
 C         3.4741883171       -1.9425913121       -2.2635880595
 O         5.9704885821       -2.6464984333       -4.2801218377
 O         2.1849000249       -0.4020716753       -3.5324851580
 C         5.6309325810        0.1125419565       -3.8835139620
 C         3.9369223735       -0.0148902560       -5.8373043408
 C         2.6322649163       -1.5404292238       -1.0199932696
 C         3.4538924399       -0.7056135862        0.0483415349
 C         2.9328906219        0.6153971817        0.5960126546
 C         1.3351335209        0.3702073950        1.0202699982
 C         0.8949278962       -0.2130480431        2.4049732803
 C         3.8289610911        1.2536107935        1.6919893238
 C         2.7904247680        1.7112059264       -0.5766999708
 O         4.3726144189       -1.2273496950        0.5902875772
 O         0.4146279562        0.7233914998        0.2607215963
 C         1.6771689210       -1.4398728730        2.8536354946
 C         1.6369603394       -1.6698153404        4.3939227093
 C         0.8940001352       -2.9859719127        4.8823016004
 C        -0.5988568448       -2.7648000720        4.3796723799
 C        -1.4169740173       -1.6062880996        4.9582519321
 O         2.0742380190       -0.8838860033        5.1553009009
 O        -0.8625394464       -3.3829041156        3.3451235285
 C         1.5533676991       -4.3791479163        4.3038305648
 C         0.9555426933       -2.9417872014        6.3758568275
 C        -2.9601071008       -1.6709450139        4.5205570252
 C        -3.2148144472       -0.8402210345        3.2239971855
 C        -4.3321570352       -1.3229063125        2.2063099457
 C        -5.1108410200        0.0679609135        1.9728679336
 C        -6.7274025299        0.1972989720        2.1577528011
 C        -3.6109144837       -1.6394922235        0.7826872653
 C        -5.0247128941       -2.5641581169        2.8080504238
 O        -2.3896945446        0.0120234911        2.9758772667
 O        -4.5202141107        1.0711775867        1.5371079823
 C        -7.2663314033        1.5456915132        1.7578073175
 C        -6.6937790234        2.6911427565        2.5999446479
 C        -6.8622719231        4.1969360122        2.0990251287
 C        -5.3653601670        4.8584605081        1.8393479176
 C        -4.6382311131        5.3606708394        3.0999252890
 O        -6.0660270142        2.5395050604        3.6333505067
 O        -4.9734425046        5.1279274440        0.7411559186
 C        -7.7057648379        4.3261019079        0.8738604592
 C        -7.5234978008        5.0832185240        3.2475442547
 C        -3.1373738827        5.6198080217        2.9724394504
 C        -2.3306844625        4.7834770988        2.0043404002
 C        -1.3090246645        5.5417896747        1.0167055957
 C        -1.1777313865        4.3810573998       -0.0274993112
 C        -2.0412093059        4.1869311447       -1.3087016369
 C        -1.9136920977        6.7602273414        0.4005767379
 C        -0.0645433367        5.8010756822        1.8272255302
 O        -2.4715745914        3.5832980486        2.0326821538
 O        -0.3499734821        3.4763020140        0.1990533838
 C        -1.6455108668        2.9255220592       -2.0860593749
 C        -2.6518448825        1.7638123715       -2.0027556386
 C        -3.5822470222        1.4207847419       -3.1684084195
 C        -2.7256024389        0.8759523148       -4.3625924926
 C        -2.7484542559       -0.5772821832       -4.8490774343
 O        -2.6891062887        1.1590008898       -0.9665017856
 O        -1.9404756631        1.6101488176       -4.8670933206
 C        -4.7357547204        0.4806863641       -2.6603901013
 C        -4.1069740982        2.7520184101       -3.6244937144
 H         4.9823796973       -4.4757483202       -2.3455507762
 H         4.6926718546       -5.9789881044       -1.4943552184
 H         6.3416731974       -5.1493248883       -1.3111803095
 H         5.6823275997       -4.5056782157       -5.8475987846
 H         4.2510210859       -4.9751456778       -6.7227525926
 H         6.0068276008       -8.2501034115       -4.9655431218
 H         6.2633700068       -6.7229071438       -5.7896355994
 H         4.8409713536       -7.6906392913       -6.0318439872
 H         2.8150687603       -7.0882839751       -3.3788576716
 H         3.7833278957       -8.4443060759       -4.2564114208
 H         4.0162229842       -7.7263896399       -2.5516942150
 H         3.9985150851       -2.6550135578       -6.6454525867
 H         3.0390994971       -3.2152162051       -5.1856283101
 H         3.1925456935       -2.9764417845       -2.6139307329
 H         4.4899223276       -2.0858257140       -2.0229538982
 H         6.0561087369       -0.4231118913       -2.9172397091
 H         5.4386124700        1.1431270701       -3.6464718324
 H         6.4557926055        0.1019740081       -4.6780332834
 H         3.7509433617        1.0232309788       -5.6887768080
 H         4.6978182442       -0.1150029819       -6.5755119996
 H         3.0152806949       -0.4316725160       -6.1062851340
 H         2.3629400530       -2.4442173993       -0.5432599242
 H         1.7707667327       -0.8836921678       -1.3230062480
 H         1.0109801341        0.5817424436        3.2292256980
 H        -0.1914396368       -0.3882724809        2.3079959905
 H         4.2888626548        0.5136504941        2.2919211239
 H         3.2669971936        1.9426730235        2.3064709937
 H         4.6997541119        1.8299360124        1.1796387253
 H         3.6506195135        2.3877267341       -0.4612746526
 H         2.7503755339        1.4430582358       -1.6319426756
 H         1.9203787594        2.3215552134       -0.4397546622
 H         1.1571896778       -2.3125719039        2.4735868520
 H         2.6701205481       -1.3564828245        2.5611958191
 H        -1.3408188929       -1.4569077832        6.0327990704
 H        -1.0055608554       -0.6626208038        4.5710450504
 H         2.5854085200       -4.3661255073        4.2208492269
 H         1.0076126141       -4.4603426343        3.3322319478
 H         1.1071009423       -5.1311212345        4.9856235316
 H         0.7679257835       -1.9092958118        6.6221255138
 H         0.3110882415       -3.6683221704        6.8370269866
 H         1.9822023937       -3.1766003999        6.8094530310
 H        -3.5872560475       -1.3919700778        5.3374869388
 H        -3.1281982971       -2.7177975293        4.2511292396
 H        -7.1514017529       -0.5392208439        1.4312469455
 H        -7.1343329926       -0.2519597560        3.1127859135
 H        -2.8719663102       -0.9194184821        0.4729138412
 H        -4.2563187839       -1.6253126079       -0.0819408782
 H        -3.1286459766       -2.6128449287        0.8327429968
 H        -5.8914641633       -2.7162124649        2.1045717470
 H        -4.3778731376       -3.4475026574        2.8621835546
 H        -5.5265725791       -2.3276143456        3.7831643472
 H        -7.0530635014        1.6940037818        0.7322253304
 H        -8.3771330692        1.5989807149        1.7146461188
 H        -5.1189431058        6.3206703939        3.5051327659
 H        -4.7806988834        4.6019712744        3.8597122940
 H        -7.8175925039        5.3506522914        0.4705959768
 H        -8.7474973010        3.9610449586        1.0484144342
 H        -7.3176014189        3.7792650669       -0.0041029752
 H        -8.4339891866        4.5112190985        3.5467711148
 H        -6.8280523812        4.8918780180        4.0566694726
 H        -7.6637256969        6.1311630593        3.0773130160
 H        -2.6533795693        5.4589429936        3.9672630830
 H        -3.0521996360        6.6954442781        2.6895012321
 H        -3.0699652269        4.3128789753       -1.0070314136
 H        -1.7528575600        5.0898866396       -1.8155002721
 H        -1.4601543467        6.8354053007       -0.5658303112
 H        -1.5545287995        7.6422037389        0.9782099294
 H        -2.9724570721        6.6412833603        0.2063415721
 H         0.8196064212        5.3507702731        1.2367966575
 H        -0.1219379823        6.8282092376        2.1233221948
 H        -0.0769359256        5.1398046234        2.7407524602
 H        -1.4490329860        3.2251334227       -3.1542483491
 H        -0.6477156928        2.5129550955       -1.7162012164
 H        -3.7532083421       -0.9362944983       -5.0817930586
 H        -2.1273521511       -0.6296141434       -5.7188454965
 H        -2.4689256838       -1.2251053330       -4.0392774265
 H        -4.3233236738       -0.4585453276       -2.2929730102
 H        -5.3900314493        0.2966864286       -3.5105781600
 H        -5.2285159828        1.0041579902       -1.8345257498
 H        -4.3660890742        3.4704572153       -2.8543771528
 H        -3.3662428983        3.2421813839       -4.3057179450
 H        -5.0378031460        2.5529441451       -4.1627761243
 Na       -1.8922341413        1.5126669244        1.2949679207
