155

 C         6.1163859552       -5.8522048800       -1.7876127556
 C         6.1899890462       -5.9731045234       -3.3386419521
 C         5.0156508788       -6.4088005725       -4.3145663823
 C         4.2868836199       -5.0759733778       -4.6847726180
 C         4.7974353520       -4.2737526409       -5.8955446773
 C         5.5936547814       -7.0437191675       -5.5681159059
 C         3.7749797470       -7.2666249957       -3.7267332136
 O         7.2000051401       -5.5663521126       -3.9421660194
 O         3.2373787686       -4.7379115626       -4.1487635813
 C         4.3706652850       -2.7430856324       -5.7048598081
 C         4.9424370113       -2.2820342410       -4.3846826457
 C         4.6204978826       -0.7379679945       -3.8898823798
 C         3.1377800878       -0.8055014401       -3.3005246773
 C         2.8154768613       -1.9085434828       -2.3126681367
 O         5.4977375805       -2.9964860509       -3.6000192246
 O         2.3179198626        0.0477812126       -3.6761262582
 C         5.5501995786       -0.2852488563       -2.7729892524
 C         4.5398830893        0.2322967274       -5.0695542277
 C         2.1148069526       -1.3057027825       -1.1541688369
 C         3.1299723011       -0.7251382601       -0.1092953104
 C         2.6546655167        0.6362265159        0.6176106023
 C         1.1804201900        0.5282438194        0.9446244363
 C         0.8942725985       -0.0425834916        2.5194773946
 C         3.5628383895        0.8311841440        1.8232328476
 C         2.8707740384        1.9353501771       -0.3535747135
 O         4.1168083656       -1.2948082898        0.2238809795
 O         0.2655218424        0.7568747045        0.2048384710
 C         1.4431350382       -1.4523538237        2.9975967033
 C         1.3546034620       -1.4322266832        4.5860631960
 C         0.7190951083       -2.7086424388        5.3639635595
 C        -0.6910010019       -2.8227303415        4.6551868720
 C        -1.8967773499       -2.1786229355        5.3084502216
 O         1.5235981587       -0.3909019286        5.1644934412
 O        -0.8189997738       -3.4996520404        3.7106856300
 C         1.6503294644       -3.9164240505        5.0886068033
 C         0.6364616904       -2.3897792739        6.8788544649
 C        -3.0629956274       -2.2276528307        4.2395508777
 C        -2.9933653995       -1.1993772822        3.1153204854
 C        -3.9532924641       -1.3970318369        1.8492627446
 C        -4.7940094945       -0.0354070649        1.6448325975
 C        -6.3230375563       -0.0863176581        1.6440721105
 C        -2.9882539869       -1.6014918272        0.6075015097
 C        -4.8916713893       -2.6790375362        1.8994253548
 O        -2.1794284198       -0.2637199864        3.0974987396
 O        -4.1677231609        0.9906352677        1.5418161765
 C        -6.9015108573        1.3053258280        1.4066174335
 C        -6.8864095790        2.5158580476        2.6244534177
 C        -7.1336430905        3.9866843508        2.0762810343
 C        -5.6948488315        4.6243020418        1.7500073782
 C        -4.7229812952        5.1868635036        3.0059102381
 O        -6.6588516790        2.2716356201        3.7796249757
 O        -5.3333044241        4.7998111167        0.6399983386
 C        -7.9983214405        4.0478849754        0.8372574233
 C        -7.7503295877        4.8130681681        3.3112459710
 C        -3.3180062143        5.7151581479        2.5858443903
 C        -2.3751368802        4.7048610782        1.9202563310
 C        -1.4272620530        5.2563364199        0.8179069804
 C        -0.8912161125        4.1267707500       -0.0969383671
 C        -1.3739544757        3.9893934806       -1.6227252946
 C        -2.0909959836        6.3259793072       -0.0272911594
 C        -0.2587568770        5.7717994205        1.6691857101
 O        -2.3465461482        3.5049128644        2.2093617630
 O         0.0535277812        3.4724974047        0.3163588452
 C        -1.2944874645        2.6351104304       -2.2524358660
 C        -2.4834209245        1.7632802669       -1.9949903286
 C        -3.4502827500        1.6057573709       -3.2191644573
 C        -2.7244094112        1.1132761247       -4.4368707555
 C        -3.0771429103       -0.2110998566       -5.0332866384
 O        -2.7364365111        1.1593100397       -0.9559355995
 O        -1.9073813742        1.8677429309       -4.9531456897
 C        -4.6542461619        0.7154340342       -2.7541795527
 C        -4.0517539775        2.9122187325       -3.5811552117
 H         6.3149024022       -4.8274692114       -1.6959008786
 H         5.0605229215       -6.0673631541       -1.4303255692
 H         6.8473641891       -6.4901120376       -1.2006449102
 H         5.8191593744       -4.3423168876       -6.1548876060
 H         4.2336836455       -4.5619959816       -6.8054049161
 H         6.2291503525       -7.8473094629       -5.3598288180
 H         6.2442048703       -6.4455485545       -6.1965655919
 H         4.7328683915       -7.4152275007       -6.1381744881
 H         3.3966307043       -6.6853800264       -2.8950960638
 H         2.9106401571       -7.2971903178       -4.5121509904
 H         4.1388390759       -8.2767284494       -3.5342060845
 H         4.6975468174       -2.2132037638       -6.6603003120
 H         3.3021747502       -2.6703150494       -5.5603456342
 H         2.1637410424       -2.5445148852       -2.8659048558
 H         3.7397824568       -2.4129329564       -2.0156254815
 H         5.4979136275       -1.0953636592       -1.9276105131
 H         5.0716624711        0.5161678962       -2.2799415228
 H         6.5561721219        0.0207749863       -3.1262403371
 H         4.4860101643        1.2193054172       -4.6167125380
 H         5.3140501131        0.1221063815       -5.7725571582
 H         3.6350783015        0.0036733972       -5.5927122137
 H         1.5558710846       -2.0476733084       -0.5002281192
 H         1.4824519786       -0.5406264212       -1.5409708098
 H         1.4510706736        0.6808286096        3.0124172586
 H        -0.1610023335        0.0642450416        2.7440162082
 H         4.2705537253        1.7123970127        1.6215791013
 H         4.1752991142       -0.1137885455        1.9927463258
 H         2.9287597746        1.0625871925        2.6954658569
 H         3.4330226597        1.6553908423       -1.2259914744
 H         1.9769648303        2.4069342017       -0.7548981617
 H         3.4490612174        2.7565749862        0.1095841220
 H         0.8046073502       -2.2386561924        2.6594676487
 H         2.4526584586       -1.6714715730        2.5990176980
 H        -2.0538977053       -2.7778060098        6.1769656262
 H        -1.7772792505       -1.0874186294        5.6599859536
 H         2.5981419172       -3.6045159484        5.5308011328
 H         1.7235735626       -4.1097219004        4.0138659836
 H         1.2715753576       -4.7678150349        5.5536057976
 H         0.0628418062       -1.4722626203        7.0205357528
 H         0.0102386046       -3.1427673611        7.4293713855
 H         1.6154646725       -2.2573187142        7.2436789677
 H        -4.0381741091       -1.9445832590        4.6993853088
 H        -3.0159704456       -3.1898618994        3.7601082465
 H        -6.8153753664       -0.8620281040        1.0073057639
 H        -6.5549608325       -0.3364515956        2.6933296120
 H        -2.0699585374       -1.0373856128        0.6423158542
 H        -3.5634978537       -1.3709503784       -0.2806934299
 H        -2.6556218189       -2.6168214812        0.4401472651
 H        -5.5807049730       -2.7556047488        0.9982062576
 H        -4.2218940052       -3.5239403860        2.0168118720
 H        -5.4422566434       -2.4699743195        2.8371185273
 H        -6.3324449390        1.8440808580        0.5852801394
 H        -7.9153244641        1.2535934522        1.1084683872
 H        -5.2586935601        6.0926352958        3.3949648781
 H        -4.5950498392        4.4923011564        3.9348245681
 H        -8.1473996794        5.0042401576        0.4968898925
 H        -8.9518313285        3.6561887067        0.9571620689
 H        -7.6273035657        3.3611645487       -0.0107871391
 H        -8.7749140737        4.3910792547        3.6169430606
 H        -7.1879302678        4.8225297021        4.1664312904
 H        -7.9281882444        5.7736672146        2.9175191801
 H        -2.7096490075        5.8665333112        3.4655560678
 H        -3.4144565624        6.6153537807        1.9757157342
 H        -2.3086269324        4.5170301929       -1.7983549652
 H        -0.6329121225        4.6728665485       -2.0846093839
 H        -1.6815137925        6.4612779749       -1.0988713089
 H        -1.9998908787        7.3358623840        0.4274998872
 H        -3.1619437865        6.1216136802       -0.0767052206
 H        -0.3049440658        5.2369877072        2.6335820961
 H         0.5676651285        5.4140503862        1.1988404137
 H        -0.2174231343        6.8731628172        1.7661496784
 H        -1.1150720105        2.7280620974       -3.2935022777
 H        -0.3948348872        1.9823154231       -1.8949192498
 H        -4.0889146287       -0.2702057783       -5.2608013970
 H        -2.3645775036       -0.4805280021       -5.8401201683
 H        -3.0363900852       -0.9236416878       -4.2240218715
 H        -4.3887251479       -0.3803304791       -2.5889643644
 H        -5.3348963109        0.7653936767       -3.6210810271
 H        -5.1358923080        1.1366889389       -1.9032018408
 H        -4.5298857261        3.3672477645       -2.7643546883
 H        -3.2306664067        3.6106038124       -3.8827001294
 H        -4.6818421736        2.8229266897       -4.3995864389
 Na       -1.6249985530        1.5030219305        1.3223743207
