155

 C         6.8410074555       -5.6703120693       -2.5687869243
 C         6.6039295204       -5.7001003590       -4.0715095547
 C         5.2582639194       -6.0082427854       -4.6029279431
 C         4.5157449327       -4.6777996966       -5.1098468254
 C         5.3834078627       -3.7131900489       -5.9036208021
 C         5.3455156062       -6.8985964007       -5.9265248029
 C         4.3783274743       -6.6739741646       -3.5212888250
 O         7.5959731326       -5.7062700357       -4.8566026006
 O         3.3295744232       -4.5218821862       -4.9357020252
 C         5.0169049458       -2.2531908370       -5.5353743758
 C         5.2125254355       -2.1783290733       -3.9972679157
 C         4.9725244499       -0.7890339867       -3.2469131710
 C         3.4041151745       -0.7885847916       -3.0114516119
 C         2.6777905579       -1.9512844904       -2.2694503814
 O         5.3396407428       -3.1426409900       -3.2379950305
 O         2.7728785754        0.2356503575       -3.2497269483
 C         5.7456174591       -0.9515337152       -1.8535225445
 C         5.3180161883        0.4541517509       -4.0340179144
 C         1.8680060003       -1.3817692006       -1.0958482723
 C         2.5808324838       -1.1146527110        0.2406563020
 C         2.6478024817        0.4965966971        0.7576927526
 C         1.4685212152        0.6079795223        1.7007731018
 C         1.5339359643        0.6245181833        3.2666020518
 C         4.0998079114        0.5400453308        1.4122845616
 C         2.5436515186        1.6541986758       -0.3420148809
 O         3.2072778938       -1.9571673458        0.8325157090
 O         0.2925593932        0.5382629123        1.2897403939
 C         0.9802738491       -0.7101929611        3.6945824821
 C         0.8123802643       -0.8086257858        5.2357167071
 C         0.4506707526       -2.1410499573        5.8156302852
 C        -0.7456474174       -2.6564862854        4.8028572267
 C        -2.0604788970       -1.7931095532        4.9884807310
 O         0.7640212354        0.3064484370        5.7721627340
 O        -0.5294413504       -3.5062188249        4.0229866199
 C         1.7294472714       -3.0649199702        5.6514171555
 C         0.1144786735       -2.1849899098        7.3593008434
 C        -3.0657036934       -2.2224585633        3.9381954876
 C        -3.0551445905       -1.3288235396        2.6800281244
 C        -4.1237201664       -1.5914428395        1.5800050844
 C        -4.8216634309       -0.1104203129        1.3602398731
 C        -6.2122809406       -0.2018866009        0.8071872582
 C        -3.4291025369       -1.9359604701        0.3103154596
 C        -5.2115483947       -2.7404537483        1.9855913520
 O        -2.1917180630       -0.5062623913        2.6484012376
 O        -4.2202008509        0.9186626028        1.5041186107
 C        -6.7432759849        1.2313306618        0.4893058074
 C        -6.9955855901        1.8880861839        1.8355149953
 C        -7.2355011017        3.4823605412        2.0718160799
 C        -5.8377748469        4.1035066719        1.6200710085
 C        -5.0025480797        4.4723070662        2.8034446505
 O        -7.0238120275        1.2652034016        2.8819832165
 O        -5.4256442103        4.0270230388        0.4808496777
 C        -8.3607754540        3.9734460666        1.1471703921
 C        -7.6712537031        3.6245860432        3.5338943311
 C        -3.7929550527        5.3095958865        2.5058334438
 C        -2.7016347509        4.4720654452        1.7466910886
 C        -1.6295329893        5.3184669547        0.7452436306
 C        -0.9170189829        4.2446406041       -0.1594842310
 C        -1.3292913369        4.1454267179       -1.6420469034
 C        -2.4693181660        6.3874709005       -0.0088683656
 C        -0.4464346760        6.0250828298        1.7344774150
 O        -2.5442165816        3.3246977261        2.1294563296
 O        -0.2430334905        3.3658257315        0.3239489474
 C        -1.1137916732        2.7633818259       -2.2341807968
 C        -2.3881462238        1.9260553309       -2.0212387264
 C        -3.3086855995        1.8674025796       -3.3103100252
 C        -2.4187202443        1.3100310149       -4.6014290838
 C        -2.9086652124       -0.0510749235       -5.1560502542
 O        -2.6924727528        1.3468800975       -1.0009653246
 O        -1.5118929234        1.9460327710       -5.0497362377
 C        -4.6500091824        1.0933849960       -3.0084155610
 C        -3.7376587835        3.3114274295       -3.7667405689
 H         6.3388593413       -6.5179378373       -2.1396447540
 H         7.9437830848       -5.5681564947       -2.4399890057
 H         6.2956719296       -4.8202409058       -2.1226270312
 H         6.4163091219       -3.9058574889       -5.5481805424
 H         5.3904193446       -3.7710485852       -6.9561383731
 H         5.4634586989       -7.9262942100       -5.6553380928
 H         6.1956318779       -6.6128853496       -6.5051383365
 H         4.5457721525       -6.8759739170       -6.6047791173
 H         4.0171924235       -5.9609806448       -2.7608434894
 H         3.5489265809       -7.1772196502       -4.1290167490
 H         4.8752127419       -7.4146297799       -2.8788573787
 H         5.6449462719       -1.5841041456       -6.1093654716
 H         4.0257422654       -1.8951460096       -5.9737503288
 H         1.9674566948       -2.3445439211       -2.9530341599
 H         3.3573941020       -2.8355199713       -1.8964812201
 H         5.1049096234       -1.5128066889       -1.0548620712
 H         6.1188836056       -0.0879623243       -1.4833896445
 H         6.5686034525       -1.6228007701       -2.0640780796
 H         5.1058258008        1.2632501895       -3.4015247091
 H         6.3434102569        0.5019652885       -4.2877581876
 H         4.6335435282        0.5839138837       -4.8371293325
 H         1.0354187987       -2.0890170697       -0.9165838149
 H         1.2531481821       -0.5039915922       -1.3805694529
 H         2.4077313790        0.8383571384        3.7708479598
 H         0.9746151931        1.4282879275        3.5884961470
 H         4.5936857045        0.0520214545        0.5652875098
 H         4.1192239147        0.0083177207        2.3865813644
 H         4.3401438145        1.6399424750        1.4144660423
 H         2.6233248275        1.1977567700       -1.3326309954
 H         1.5807719350        2.1564446222       -0.3014172520
 H         3.3476737988        2.4259086223       -0.3543776765
 H         0.0461444198       -0.9184055754        3.1415454657
 H         1.6785497326       -1.5192934403        3.3959485622
 H        -2.3317220753       -1.9524794253        6.0808113283
 H        -1.7867168949       -0.8038028438        4.8987596813
 H         2.6150501205       -2.4082240382        5.7545439729
 H         1.8066224466       -3.5461187968        4.6808990514
 H         1.8218661393       -3.8183478478        6.3458544834
 H        -0.5531490635       -1.3293025905        7.6365199149
 H        -0.3164742925       -3.2008592421        7.5285175131
 H         0.9095420663       -2.0258357840        8.0425532976
 H        -4.1041564390       -2.3055370137        4.3466640498
 H        -2.8517956400       -3.2875726606        3.6700201298
 H        -6.1620732896       -0.8055556462       -0.1070997873
 H        -6.8440628800       -0.6020662572        1.5928809207
 H        -2.7788701290       -1.1440154772       -0.0710824588
 H        -4.1715539895       -1.9438118558       -0.5087971160
 H        -2.9459448814       -2.9167479945        0.3636608300
 H        -5.8487296213       -2.8494791582        1.1111027049
 H        -4.6476788536       -3.6615985834        2.2887066937
 H        -5.9120030583       -2.4082003086        2.7791267979
 H        -6.0023336672        1.7405936484       -0.1396642116
 H        -7.7269271088        1.1080165264       -0.0721640909
 H        -5.5545523211        4.9642566126        3.5424127096
 H        -4.6318115912        3.5094786763        3.2611431061
 H        -8.8123830737        4.8961351449        1.3343702332
 H        -9.1743544938        3.2722340138        1.0891255962
 H        -7.9282395707        4.0026088359        0.1246295088
 H        -8.6496828582        3.1009350693        3.7754137144
 H        -7.0224624030        3.2688473675        4.2397848781
 H        -7.6643154060        4.6573962547        3.7353353473
 H        -3.1396558443        5.6476160805        3.3372583112
 H        -4.0065752187        6.2036126667        1.9760049721
 H        -2.4614444585        4.2346777395       -1.6617212336
 H        -0.9209487689        4.9287404236       -2.2972369633
 H        -2.1142993850        6.7349057065       -1.0115756461
 H        -2.4409945422        7.3379556895        0.4561635449
 H        -3.4898290399        6.0502956878       -0.2302455368
 H        -0.7502944991        5.8372473387        2.7663464144
 H         0.4733658393        5.6643189605        1.5631676643
 H        -0.3719596494        7.1219724752        1.6418335193
 H        -0.9336830174        2.7810781714       -3.2599376184
 H        -0.3704138049        2.2196033036       -1.6784284342
 H        -3.7352337766        0.1232978272       -5.7949109710
 H        -2.2367750532       -0.5785009195       -5.8565320627
 H        -3.0525582412       -0.7175600251       -4.3448623025
 H        -4.5725162193        0.0530785909       -2.7752901527
 H        -5.3747244354        1.1429353879       -3.8283938200
 H        -5.1018796178        1.4740981016       -2.0556890003
 H        -4.4509995067        3.8004698502       -3.1065933515
 H        -2.8071291860        3.9456655838       -3.9266087736
 H        -4.2187748909        3.2455264485       -4.7303839623
 Na       -1.6762161117        1.3690327567        1.0430625515
