155

 C         7.3514536143       -6.2383273284       -4.2425601597
 C         6.7552222971       -6.2883465369       -5.6821287674
 C         5.2949177777       -5.6751470093       -6.0176039057
 C         5.2487378432       -4.3188032371       -5.2080387266
 C         5.7832261934       -2.8872395344       -5.9785138487
 C         5.0897571051       -5.4458229169       -7.5442340101
 C         4.1409152591       -6.5550848756       -5.4236684015
 O         7.3990767088       -6.7833507758       -6.5872964204
 O         4.8813925235       -4.2356209082       -4.0423411823
 C         5.9323862920       -1.8850277118       -4.8810449622
 C         6.7248453083       -2.1206733268       -3.5551784466
 C         6.6646350688       -1.0535969866       -2.4423932234
 C         5.2531315839       -0.7593144014       -1.8608082588
 C         4.6300959249       -1.6829244602       -0.6901118846
 O         7.4946212567       -3.0685470368       -3.5221587626
 O         4.7476041688        0.2464340217       -2.2990452583
 C         7.4499146280       -1.6035519819       -1.2982849681
 C         7.2987446325        0.2690043978       -3.0172637427
 C         3.2477488777       -1.1639483172       -0.2356293139
 C         3.2985568510       -0.4736250613        1.1122075421
 C         2.7335197557        1.0129952748        1.2759825363
 C         1.2207645966        0.8149810777        1.7261400628
 C         1.0869349288        0.5629818987        3.2305275202
 C         3.5567551233        1.8193654496        2.3504364093
 C         2.5883601953        1.7922416201       -0.1379836430
 O         3.6902284007       -1.0293115367        2.1047059203
 O         0.3190074577        0.7154843957        0.8935775531
 C        -0.4338931799        0.2442327010        3.5625942353
 C        -0.6650388219        0.5129971055        5.0146764522
 C        -1.0784912805       -0.6387571916        5.9151104494
 C        -2.2683272378       -1.4557700117        5.2907309353
 C        -3.7105459192       -0.9479555291        5.3378549916
 O        -0.4773801426        1.6152017247        5.4543657552
 O        -2.0054904921       -2.6419015858        4.9279807281
 C         0.0989258212       -1.6360026866        5.8907505194
 C        -1.3112314464       -0.0058500997        7.3238552198
 C        -4.5718170480       -1.6074263555        4.2417972912
 C        -3.8064932953       -1.2533518012        2.8883174584
 C        -3.9236948606       -2.1042684764        1.4843103168
 C        -4.5785040627       -1.0643073161        0.5172524733
 C        -6.0243146310       -1.1738603497        0.1607870410
 C        -2.4484121027       -2.3954837576        1.1770620257
 C        -4.5940672223       -3.3921627671        1.6315165832
 O        -3.1600530165       -0.2325390111        2.9249822509
 O        -3.8850827595       -0.1520219529        0.0121409309
 C        -6.8479053018        0.0401995628        0.0226738390
 C        -7.2315866414        0.5669969865        1.5092990133
 C        -7.8459476895        1.9869868136        1.6352808345
 C        -6.7541307615        3.1249799969        1.4631152119
 C        -5.8968933384        3.3140850226        2.7180081258
 O        -7.1611444407       -0.1787608918        2.4542719900
 O        -6.5840829382        3.7914220921        0.4306615478
 C        -8.8561347602        2.1282007338        0.4614330407
 C        -8.6662255687        2.0142730969        2.9185827576
 C        -4.7262337334        4.3592583073        2.5692744976
 C        -3.5715958077        3.6316986114        1.9265306695
 C        -2.1618552499        4.4592291503        1.8133499438
 C        -1.5351565180        4.0353192999        0.4305629087
 C        -1.9476414494        4.6399697217       -0.9400598119
 C        -2.5064548072        6.0006673790        1.6524623112
 C        -1.3743561576        3.8868821326        3.0281122014
 O        -3.6086693683        2.4128041117        1.7155287153
 O        -0.8389773229        3.0428366116        0.4886269527
 C        -1.5040612081        3.8756068093       -2.1484967108
 C        -2.2300266729        2.5465536821       -2.3650565302
 C        -2.6794952133        2.1918318729       -3.9062768047
 C        -1.3331677545        2.2630890450       -4.8145304894
 C        -0.3491990462        1.1856107564       -4.4370610469
 O        -2.3472635345        1.6347551386       -1.5918636866
 O        -1.2079774226        2.9722536865       -5.7730326218
 C        -3.3895491016        0.7463308861       -3.9888158744
 C        -3.7403351071        3.2966729838       -4.2577655977
 H         8.3910586728       -6.6326413082       -4.2390113550
 H         7.3182840575       -5.1767473006       -4.0536522531
 H         6.6007490602       -6.8146837654       -3.6392780845
 H         6.6638379478       -2.8908953280       -6.6641666004
 H         4.9393473517       -2.6219063633       -6.6054307941
 H         4.8256665475       -6.3879070715       -7.9526745600
 H         6.0105025107       -5.0570142104       -7.8884554809
 H         4.3681113579       -4.7358563001       -7.7449500945
 H         4.2468980974       -6.5814753088       -4.2948608795
 H         3.1253836052       -6.0472183928       -5.3966154915
 H         4.0509207602       -7.5616461625       -5.9347283254
 H         6.1593319168       -0.8986404627       -5.2472805251
 H         4.9115266527       -1.7129382646       -4.5163876498
 H         4.5985014578       -2.6720372303       -1.1036273902
 H         5.3456994536       -1.6182364347        0.1467329760
 H         7.0448279389       -2.7264740484       -1.2021489311
 H         7.2184029103       -1.0701016275       -0.3885176892
 H         8.5260269768       -1.7279459523       -1.4504007652
 H         7.0477445434        1.1028914812       -2.3050410449
 H         8.3789453612        0.1321205610       -3.1784010360
 H         6.8610695657        0.5687229191       -4.0092271723
 H         2.6195999536       -1.9733700620        0.0674110359
 H         2.6600959085       -0.6151947762       -1.0022122383
 H         1.8369615823       -0.2947951344        3.4740267730
 H         1.4004948958        1.3850172512        3.9331688965
 H         3.1910767374        2.8134580769        2.4632082579
 H         4.6401863748        1.9622876317        2.1691116448
 H         3.5938408823        1.4126233279        3.3033059057
 H         3.5553968763        2.1219738851       -0.4220745184
 H         2.2616486949        1.2078105579       -0.9882621969
 H         2.0042583448        2.7017545622        0.1019260034
 H        -1.0511442520        0.9881558773        3.1082129214
 H        -0.8162525358       -0.7778291756        3.2966181992
 H        -4.0744607043       -1.0970000143        6.3439154514
 H        -3.7411489545        0.1627685391        5.2158774953
 H         1.0576954032       -1.4086705526        6.3345720453
 H         0.4567579452       -1.9116981204        4.9244952295
 H        -0.0306920495       -2.5689355946        6.4951580447
 H        -1.8418977361        0.9010638511        7.0472987661
 H        -2.0157076071       -0.5977329606        7.9615004465
 H        -0.2975417656        0.2024364462        7.7776469829
 H        -5.5643801046       -1.1460953161        4.1538261507
 H        -4.6685544804       -2.6717560148        4.4054007848
 H        -6.1050624089       -1.6955132634       -0.8036489508
 H        -6.4548695781       -1.7629614202        0.9793304686
 H        -1.8883730334       -1.4625336579        1.2253230813
 H        -2.4938112991       -2.8532628615        0.1852995860
 H        -2.0390789344       -3.1347770349        1.8660384414
 H        -4.5524887909       -4.0305517669        0.6742823474
 H        -4.0710066990       -3.8307756188        2.4723452400
 H        -5.6730416447       -3.2338195141        1.8155388814
 H        -6.3937527400        0.8044653208       -0.5577553349
 H        -7.8321618058       -0.3030714649       -0.3753363899
 H        -6.6184803643        3.6397585921        3.4889847286
 H        -5.4939070943        2.3208588833        3.1925705723
 H        -9.1919571472        3.1771290976        0.5034399960
 H        -9.6019642612        1.4002918179        0.5529313369
 H        -8.2067458913        2.1151366714       -0.5256222124
 H        -9.6754764681        1.8545502120        2.8528054775
 H        -8.1577506392        1.2258838877        3.5518498621
 H        -8.6736651057        3.0262063594        3.2633054657
 H        -4.5054800419        4.7655572912        3.5790201446
 H        -5.0170046898        5.1292086856        1.8571397304
 H        -2.9805775561        4.8136267890       -0.7842285674
 H        -1.3392404161        5.5275294705       -0.9457437099
 H        -1.6504776275        6.5596728988        1.2025227075
 H        -2.8035595861        6.3107729278        2.6339960906
 H        -3.2865610798        5.9959584797        0.9609975746
 H        -1.9467287810        3.0210172319        3.3798069282
 H        -0.4308530992        3.6279733710        2.7722129364
 H        -1.3269190371        4.5458020794        3.9052815323
 H        -1.6070118465        4.5715274111       -3.0004456749
 H        -0.4464826982        3.5685909796       -2.1375597695
 H        -0.5886567436        0.3349783391       -5.0839236586
 H         0.6409635322        1.3671418343       -4.8090746248
 H        -0.4147212016        0.8333637528       -3.3678848119
 H        -2.6612893206        0.0673048896       -3.5296094939
 H        -3.4997578609        0.4423875258       -5.0177213151
 H        -4.2888645946        0.6397769945       -3.3871386413
 H        -4.0684703903        3.2873930867       -5.3417819467
 H        -4.6256805839        3.1992167738       -3.6486357653
 H        -3.2718561826        4.3210511350       -4.0598749969
 Na       -1.9645975118        0.9859891232        0.8425798358
