155

 C         6.5429164514       -6.8575249644       -4.8353263857
 C         6.3940761607       -5.7279283872       -5.8539443432
 C         5.0397291654       -4.9747064246       -5.8519419890
 C         5.1529807044       -3.5950559726       -5.0103690491
 C         6.3744410491       -2.5737486482       -5.2410836482
 C         4.7117470055       -4.5105993233       -7.2304277494
 C         3.8868460503       -5.8868795254       -5.3915526466
 O         7.2794597150       -5.4099980155       -6.6110891399
 O         4.1714665497       -3.2157464192       -4.3866811087
 C         6.4512984572       -1.6422119546       -4.0383677735
 C         6.9614129332       -2.1964831368       -2.6772975270
 C         7.1504657668       -1.1498434306       -1.4315930822
 C         5.6658844490       -0.7912010627       -1.0819943987
 C         5.0172911777       -1.6154170495       -0.0368216733
 O         7.1422171710       -3.3624689913       -2.4117219092
 O         5.1945492456        0.1899580419       -1.6028527667
 C         8.0538610645       -1.7585209598       -0.3484512690
 C         7.8639850076        0.1093678627       -1.9396240773
 C         3.4873024452       -1.3181754006        0.1846447844
 C         3.1771199389        0.0856812216        0.6515533328
 C         1.9256210619        0.9412992311        0.1967589166
 C         0.8677910114        0.6699553874        1.4391734469
 C         1.3671311278        0.9217216534        2.8425070197
 C         2.3886476087        2.4099756349        0.1318869560
 C         1.2665242316        0.4571401987       -1.1408828817
 O         3.9057730982        0.5391863996        1.5318995823
 O        -0.1616716360        0.1267441646        1.1548824125
 C         0.5718099526       -0.1521971843        3.7665026059
 C        -0.3136898440        0.5644288822        4.8099567470
 C        -0.8447465808       -0.3639301730        6.0933690421
 C        -1.8723042684       -1.4107630059        5.5507486831
 C        -3.3316546020       -0.9811644992        5.3139667486
 O        -0.7649722689        1.6493356922        4.6353369326
 O        -1.4463229176       -2.4911647772        5.1456829966
 C         0.3692830778       -1.0961527694        6.7032419099
 C        -1.5051680184        0.5642833877        7.0458482754
 C        -4.1548615656       -1.8440769615        4.3409178218
 C        -3.5737542382       -1.7586160808        2.8744973047
 C        -4.1204646237       -2.5039538865        1.6397458831
 C        -4.6034639481       -1.4925219081        0.6233025560
 C        -5.9323377754       -1.9507858331       -0.0957703319
 C        -2.9334228893       -3.3036319488        1.0669540579
 C        -5.1792962804       -3.5116047969        1.9807845270
 O        -2.5708558969       -1.0815426092        2.7742796655
 O        -4.0465136791       -0.4526819197        0.3373251868
 C        -6.7414568281       -0.7151229189       -0.5663422878
 C        -7.0060246155        0.1864442703        0.6528344267
 C        -8.0541326481        1.4732568307        0.4447499314
 C        -7.1969512949        2.7236503987        0.6707238835
 C        -6.7622555274        2.9892349487        2.1359423033
 O        -6.5686276169       -0.0164436452        1.7628391703
 O        -6.6964551455        3.4003822090       -0.1949766847
 C        -8.7907261370        1.4664978452       -0.8454932278
 C        -9.0075277210        1.2980419973        1.6003226132
 C        -5.5233258298        3.9632828502        2.2219136726
 C        -4.2307117049        3.3317259907        2.0804162581
 C        -2.9840052786        4.2446330057        2.1025812266
 C        -2.0775728117        3.8179872515        0.8021008544
 C        -2.3886792141        4.3226596456       -0.5914041979
 C        -3.3164258001        5.7745756393        1.9338985506
 C        -2.1181348809        3.8886513572        3.3882758631
 O        -4.1332136430        2.1166403590        2.1157137952
 O        -1.2087791991        2.9712988975        0.9390150778
 C        -1.2933652422        3.9059316692       -1.5631035897
 C        -1.6895565268        2.5101813252       -2.2080456125
 C        -1.6198945584        2.3526512756       -3.7331411673
 C        -0.4233795546        3.0955556783       -4.3776740485
 C         0.4243998310        2.4678474009       -5.4337183316
 O        -2.0117918559        1.5418496025       -1.5583100031
 O        -0.3196913107        4.3226957114       -4.1516502263
 C        -1.6407938037        0.8567116146       -4.1365488035
 C        -2.7884617034        3.0319830814       -4.4475777776
 H         7.6718620021       -7.1311815055       -4.9480594531
 H         6.1427548770       -6.6178703006       -3.8840773608
 H         6.1560466629       -7.7609982196       -5.3063422007
 H         7.2702282422       -3.1277700094       -5.4633809293
 H         6.0577948516       -1.8417527861       -6.0202338478
 H         4.0442933513       -5.2832347360       -7.7419910950
 H         5.6445464342       -4.3930656216       -7.8468958626
 H         4.1010205241       -3.6088173709       -7.1839538162
 H         3.9750437131       -6.3816450493       -4.4479236105
 H         3.1130639026       -5.1741959568       -5.2073680055
 H         3.6197426062       -6.4875745077       -6.2074636275
 H         7.0649140801       -0.7536022941       -4.3568651215
 H         5.4684757115       -1.3669557716       -3.8088533426
 H         5.2378288186       -2.6398465969       -0.1096686313
 H         5.5245594759       -1.3927462506        0.9547351953
 H         7.7685266721       -2.7737270939       -0.0611347738
 H         7.9966553019       -1.0783275376        0.5091933118
 H         9.2119980278       -1.8700493452       -0.6263908091
 H         8.1496271548        0.7084523384       -1.1264543904
 H         8.7058611830       -0.2414192603       -2.4691234438
 H         7.2060176082        0.6816239711       -2.5624487649
 H         3.2349246619       -2.0575126701        0.9545541385
 H         2.8942039871       -1.5867529105       -0.6540380884
 H         2.4502092081        0.9035466831        2.7919513122
 H         1.0539006253        1.8943885550        3.3067154281
 H         1.6775250523        3.1686534716        0.1351165648
 H         2.9497856709        2.5138304966       -0.7727693395
 H         3.0155806455        2.7450980378        1.0428215554
 H         0.9868916707       -0.5692030411       -1.0485429767
 H         0.3829955609        1.0429788087       -1.3486676580
 H         1.9814335559        0.5974989012       -1.9599393443
 H        -0.0408359378       -0.8013504119        3.1041971898
 H         1.2757881035       -0.7875243130        4.2494537463
 H        -3.8626323496       -1.1327409185        6.3493332469
 H        -3.4421364888        0.0164127516        5.0352575211
 H         1.3094271510       -0.6156853340        6.5002126038
 H         0.6336558719       -2.1056236199        6.5358168042
 H         0.4297900214       -1.2065475868        7.8035979823
 H        -2.5243758446        0.7031054357        6.8266785916
 H        -1.4384810627        0.2111571216        8.0659422329
 H        -1.0297876057        1.5132102366        7.0588789848
 H        -5.1889822977       -1.5151049452        4.3016756616
 H        -4.2800302949       -2.9034988987        4.6671677856
 H        -5.7342739975       -2.6185473827       -0.9059024470
 H        -6.6169555800       -2.4414412249        0.6418282668
 H        -2.2351781522       -2.5268054479        0.7308537089
 H        -3.3335678741       -3.8135695185        0.1955162094
 H        -2.4792341046       -3.9781929678        1.7891436660
 H        -5.4448390978       -4.0867183039        1.0408329751
 H        -4.7950222051       -4.1582094897        2.7483554313
 H        -6.1150792987       -3.0970489958        2.3225060797
 H        -6.0196551687       -0.1792190328       -1.2140521985
 H        -7.7117362517       -0.7928843841       -1.0515264329
 H        -7.6088118591        3.3644640381        2.7139155274
 H        -6.3235468555        2.0636338009        2.6529303240
 H        -9.4382866319        2.3358971049       -0.8486448897
 H        -9.3567246899        0.6017290471       -0.9978985103
 H        -8.1277803913        1.6141162209       -1.7483291469
 H        -9.7387845896        0.6272407970        1.3078837859
 H        -8.6196408665        1.1614530670        2.6127601571
 H        -9.6143435122        2.1997506886        1.4794722081
 H        -5.4676550182        4.5765932689        3.1210402968
 H        -5.6646963160        4.7538574494        1.4795640778
 H        -3.2665647384        3.6902611032       -0.7960534892
 H        -2.8340095339        5.3287198154       -0.6539143898
 H        -2.3523515032        6.3735150280        1.9577624872
 H        -3.9021598335        6.1327630671        2.7762599163
 H        -3.8306886144        6.0294185921        1.0170995022
 H        -2.1712408269        4.7367453873        4.1033148291
 H        -2.3702226801        3.0168757293        3.8785182195
 H        -1.1192264603        3.7825129859        3.0410743204
 H        -1.1070812603        4.7260491615       -2.2315106111
 H        -0.3585969352        3.7891678726       -1.0334709428
 H        -0.1110486045        1.8330285212       -6.1467503063
 H         1.0885579295        3.1458112252       -5.9166187397
 H         1.1589122235        1.8940060396       -4.8044007342
 H        -0.7057300836        0.4478327719       -3.8143156336
 H        -1.8439086851        0.6904155799       -5.1860417127
 H        -2.4702052797        0.3485097129       -3.5795771100
 H        -2.9431783672        4.0817214063       -4.2759798650
 H        -2.6944465584        2.8709562940       -5.4652985494
 H        -3.6669842454        2.4915761265       -4.1443275876
 Na       -2.3433080557        0.8532512349        1.0330756948
