155

 C         6.3071533038       -6.9063568621       -5.2526965019
 C         6.2658877554       -5.4438761382       -5.6724861167
 C         4.9564937448       -4.6742963529       -5.6803607476
 C         5.2071937918       -3.3912355664       -4.7903800573
 C         6.5899663749       -2.5027604384       -4.9098691744
 C         4.7134108978       -4.1335165868       -7.1405647838
 C         3.6255683588       -5.4384484479       -5.2820349732
 O         7.2965156076       -4.9228046819       -6.0479548996
 O         4.3690624047       -2.8898875179       -4.0385029742
 C         6.6642292824       -1.5145580001       -3.8120408949
 C         6.8537362646       -2.1529159017       -2.4838238694
 C         7.2251097266       -1.1721008235       -1.2890081531
 C         5.7153436609       -0.8269161901       -0.8595566372
 C         5.0058453409       -1.7453698045        0.1394235314
 O         6.6577695252       -3.3697652905       -2.3596457484
 O         5.1012811950       -0.0737395113       -1.5327595249
 C         8.0422641092       -1.9267035513       -0.2960754249
 C         7.9123975967        0.1934780218       -1.6106836002
 C         3.5635943335       -1.4663258234        0.4151653236
 C         3.2022710468        0.0134244617        0.5095082244
 C         1.8812175415        0.7026480156        0.0585455835
 C         0.8007502925        0.3792786312        1.1049531780
 C         0.9211556647        0.8725635953        2.5023980565
 C         2.0525314647        2.2548320642        0.0000867970
 C         1.5324563711        0.0867706984       -1.3927140984
 O         4.0833384770        0.7899717312        0.8440860705
 O        -0.1097018280       -0.3924737698        0.7573720528
 C         0.2766030653       -0.2034148356        3.6598054566
 C        -0.3209189983        0.5538439205        4.8229862874
 C        -0.7538361385       -0.2897670476        6.0593583612
 C        -1.7550731536       -1.3441147421        5.4117905393
 C        -3.1384388583       -0.9185374378        5.1970234170
 O        -0.6387802777        1.7079297767        4.7157440198
 O        -1.2202921731       -2.3507968674        4.9546452879
 C         0.4493942085       -1.0514155283        6.6671839192
 C        -1.4230211001        0.7026139587        7.1030910657
 C        -3.8912656101       -1.7904657747        4.2422794452
 C        -3.3256698726       -1.6072084118        2.7836675844
 C        -3.7075336887       -2.5593272984        1.5984811735
 C        -4.6004877911       -1.5751778355        0.6328852322
 C        -5.9233518033       -2.1193803379        0.1649025378
 C        -2.4519266057       -2.8679489630        0.7710158541
 C        -4.4201333561       -3.8728429908        1.9721598320
 O        -2.5897436429       -0.6386766245        2.6796398616
 O        -4.2253686928       -0.5042190111        0.1420347789
 C        -6.8224901455       -0.8989459290       -0.5176691910
 C        -7.2872331732        0.0826097636        0.5962554866
 C        -8.0915725242        1.2939005312        0.1894214782
 C        -7.2966276900        2.5743072930        0.6830717460
 C        -7.0568665608        2.7669928007        2.1000477770
 O        -6.9422844834       -0.1609746555        1.7413259677
 O        -7.0168444706        3.5036778181       -0.0416264051
 C        -8.5664777718        1.5277514819       -1.3827918370
 C        -9.4540406108        1.2189942827        0.8249745399
 C        -5.8609095675        3.7508051783        2.2917952070
 C        -4.4833237005        3.2703180244        2.1270121894
 C        -3.2542400117        4.2628267748        2.1594873215
 C        -2.2388098150        3.7117431884        1.0128801775
 C        -2.3573357735        4.3989403068       -0.4225491687
 C        -3.6210006827        5.7021265233        1.9478234865
 C        -2.5248483316        4.0444587236        3.4786541218
 O        -4.2480268164        2.0905335434        1.9445299970
 O        -1.2632086232        2.9846357038        1.2354327829
 C        -1.3824366941        3.9897439652       -1.4895087674
 C        -1.5610354595        2.5768877447       -2.0858618352
 C        -1.4483103165        2.3689415359       -3.6586094644
 C        -0.2067339411        3.1249616010       -4.2684793845
 C         0.5953148513        2.3968440649       -5.2696485987
 O        -1.6921589982        1.5430850506       -1.4200426302
 O         0.1458421542        4.2452250802       -3.8299866981
 C        -1.2951379277        0.7669396616       -4.0083806310
 C        -2.7358474008        2.8350536036       -4.2545239640
 H         7.1596768086       -7.4540092415       -5.7031246601
 H         6.2113953125       -7.0029460655       -4.1815109048
 H         5.4252926512       -7.3866676480       -5.7077368718
 H         7.4285301485       -3.1796846449       -4.9002492728
 H         6.5972634901       -1.8678438351       -5.8222391883
 H         4.6464989546       -5.0215935583       -7.8817055505
 H         5.3814898576       -3.2925471345       -7.4341365493
 H         3.7241915843       -3.6539937046       -7.1908053054
 H         3.5806957475       -5.4909028440       -4.2040492976
 H         2.8139514122       -4.7744182451       -5.4737617827
 H         3.4859749155       -6.3344026626       -5.8266558491
 H         7.5594056305       -0.8333364923       -4.0568091630
 H         5.7478855256       -0.9939249999       -3.7474809703
 H         5.1507858534       -2.7358437436       -0.1563157481
 H         5.6166281343       -1.7066779767        1.0939526210
 H         7.6812642570       -2.9246670443       -0.3033433116
 H         7.9043451617       -1.5824909722        0.8151063110
 H         9.1568602285       -1.9227679547       -0.4571984819
 H         8.1102803131        0.7229082435       -0.6722255263
 H         8.8584564374       -0.0440343402       -2.1069198844
 H         7.2790721761        0.7156326666       -2.3436434617
 H         3.1062565648       -1.9864262452        1.2627196062
 H         3.0337166805       -1.9991483442       -0.3749422159
 H         1.8322743684        1.2510264387        2.8808111010
 H         0.3038039929        1.7968551324        2.4983967447
 H         1.1237217715        2.7458902059       -0.2383622480
 H         2.7970361649        2.7083913955       -0.6548027928
 H         2.4469058204        2.6939098413        1.0239016737
 H         1.0756403979       -0.8972839527       -1.3070844068
 H         0.7949801424        0.7136977601       -1.9107094535
 H         2.4720644158       -0.0610256029       -1.9817230958
 H        -0.5776977115       -0.6398178484        3.1832613066
 H         0.9656430605       -0.9604940784        3.9629740090
 H        -3.7589913217       -0.9571667229        6.1491083160
 H        -3.1485119902        0.1203080397        4.9102706613
 H         1.3608354412       -0.5293463153        6.9746825720
 H         0.9189636901       -1.7166567584        6.0199105034
 H         0.2556706874       -1.6373994107        7.5827173188
 H        -1.7884110709        1.6408027527        6.7154915953
 H        -2.3271314541        0.2142448544        7.4736617392
 H        -0.7534639439        0.9334639558        7.9550725444
 H        -4.9280960407       -1.4181574032        4.1591840819
 H        -3.9680135377       -2.8402926759        4.6146193453
 H        -5.7866998311       -2.8500494846       -0.5823560361
 H        -6.5742295291       -2.4288425929        0.9971226749
 H        -2.0485047832       -1.8862786646        0.5065449454
 H        -2.7594178823       -3.5205429752       -0.0538017018
 H        -1.6727854999       -3.3815430839        1.3539743122
 H        -4.5222019617       -4.5638163467        1.1056689513
 H        -3.6591083118       -4.1827613835        2.6238368204
 H        -5.4068632302       -3.8879384722        2.3870719134
 H        -6.1695005867       -0.2917326841       -1.1816726409
 H        -7.5721843353       -1.4390172519       -1.1278994336
 H        -7.8360138283        3.1849739068        2.6517612206
 H        -6.6924748805        1.8256405937        2.6022193698
 H        -8.9362126993        2.5224821481       -1.7000086101
 H        -9.2205163900        0.7673272975       -1.7784000438
 H        -7.7251602526        1.5078554799       -2.0173373914
 H       -10.0203882505        0.4423683688        0.3951133391
 H        -9.3142181468        0.8972389145        1.7973862863
 H       -10.0472110336        2.1326333309        0.6865559663
 H        -5.9703883792        4.1428162747        3.2990516166
 H        -6.0976968495        4.6186013428        1.6968666982
 H        -3.3810048424        4.2126568504       -0.8307293613
 H        -2.3962588354        5.5145433295       -0.2629222734
 H        -2.8435369823        6.5345724860        1.9706102913
 H        -4.3811789519        6.1155328773        2.6205070491
 H        -4.0178093784        5.6834922223        0.9549860394
 H        -1.4525287110        4.2128901477        3.3731546086
 H        -2.9540858233        4.6499284210        4.3133801089
 H        -2.6881283138        3.0830415071        3.7695525295
 H        -1.4181000412        4.7926907626       -2.2821754434
 H        -0.4061784229        4.0998369291       -1.0629940911
 H         0.1928718327        2.1115035417       -6.2204643662
 H         1.4224727452        3.0074044633       -5.4961833770
 H         1.0371601019        1.5869603895       -4.6414659538
 H        -0.4081873551        0.3515808774       -3.4860072543
 H        -1.1373071793        0.5897277808       -5.0724053861
 H        -2.1166969254        0.1499521327       -3.5958042567
 H        -3.2106215360        3.7299068129       -3.7849688578
 H        -2.6546532600        3.0279411539       -5.2756087930
 H        -3.4386791708        1.9795636178       -4.1752742243
 Na       -2.3002342954        0.7604769362        0.8547592584
