155

 C         5.4975149840       -6.5421922928       -5.1661343649
 C         5.9364883931       -5.2454964803       -5.6694171892
 C         4.8239436619       -3.9916818518       -5.7256298590
 C         5.2359097454       -2.9840260349       -4.6190763246
 C         6.5397977152       -2.2011567780       -4.7499930198
 C         4.8182558202       -3.4612148713       -7.1428451680
 C         3.4680212982       -4.5716077096       -5.4143287868
 O         7.0984422679       -5.0629413729       -5.9767079570
 O         4.6714372004       -2.7753895077       -3.5594465055
 C         6.8063454068       -1.2574395243       -3.5659102796
 C         7.2330815184       -2.1166472674       -2.3066321346
 C         7.2255218553       -1.3668465454       -0.9060002139
 C         5.7465982783       -0.9756670332       -0.4907637612
 C         5.1280263909       -1.6946811852        0.7462519387
 O         7.7863954254       -3.1738574123       -2.3599042163
 O         5.0556482913       -0.3946916844       -1.3228703463
 C         7.9352875872       -2.1490680250        0.2173301513
 C         8.0597194244       -0.0771763326       -1.0554902552
 C         3.6161523222       -1.3601638911        0.8031988181
 C         3.2822452535        0.1422448732        1.0640651011
 C         2.1122156670        0.6616330185        0.1753114236
 C         0.7495006481        0.7005963255        0.8753077339
 C         0.6747609699        1.1532398570        2.3481945801
 C         2.3672200385        2.1786220766       -0.2032828665
 C         1.9176396336       -0.1184272961       -1.1917371379
 O         3.8576917782        0.8049563330        1.8796428147
 O        -0.2638493647        0.5249729103        0.1940096818
 C         0.0569524684        0.0595467699        3.2707535011
 C        -0.1189433588        0.5435261011        4.6285772138
 C        -0.4805896072       -0.4520356724        5.8902502895
 C        -1.3895596615       -1.5104067735        5.1925295401
 C        -2.8711200153       -1.2752445582        5.2140418652
 O         0.0855508859        1.6870575708        4.9843457661
 O        -0.7640113291       -2.3030043228        4.6002928957
 C         0.7807081891       -1.1117496101        6.3488272810
 C        -1.1603160694        0.4681399504        6.9497511467
 C        -3.6070244588       -2.1461666311        4.1674025049
 C        -3.2862027019       -1.5938987799        2.6719593605
 C        -3.4935222649       -2.5425061929        1.4783154251
 C        -4.6270842251       -1.7830760026        0.6204493353
 C        -6.0298728975       -2.3391647131        0.5472696526
 C        -2.1245631077       -2.5589187077        0.8049648107
 C        -4.0873369329       -3.9176716704        1.7513344408
 O        -3.0492936359       -0.4117788216        2.5907680736
 O        -4.3630562840       -0.6646869822        0.1640800152
 C        -6.9013267030       -1.3857065853       -0.3793458322
 C        -7.7451148613       -0.4546380642        0.3710647436
 C        -8.1108793112        1.0130312309       -0.2645571540
 C        -7.3332587353        2.2081957107        0.5146837565
 C        -7.1177786488        2.1333005514        2.0284362893
 O        -8.0666179475       -0.5913425615        1.5344170919
 O        -6.7286028820        3.1265192298       -0.0686055947
 C        -7.9475567661        1.2215679534       -1.7892043223
 C        -9.7109758899        1.2211420007        0.0634475366
 C        -6.1116932182        3.2794002532        2.4378707508
 C        -4.8080244830        2.9974970985        1.7144616663
 C        -3.8188172296        4.2974026090        1.8173556651
 C        -2.6083841099        4.0261987849        0.8656489907
 C        -2.7424988567        4.4018236542       -0.5600853935
 C        -4.4641602059        5.6428844389        1.6627408686
 C        -3.2617312344        4.0762540281        3.2696013980
 O        -4.5352535495        1.8889033255        1.3294340674
 O        -1.7186217813        3.2977669485        1.2537938874
 C        -1.5040509145        4.0568492069       -1.3614745747
 C        -1.6142258924        2.6547400418       -2.0923823307
 C        -1.3290185478        2.4900339144       -3.6433760460
 C         0.2525403505        2.8532047878       -3.8006834638
 C         1.0215484253        2.1303587879       -4.9875767569
 O        -1.8603813593        1.6435735332       -1.4701173349
 O         0.6256566705        3.6614755469       -3.0397431049
 C        -1.6483380227        1.0035816532       -4.0056984384
 C        -2.0091118207        3.4929518934       -4.5836102212
 H         6.3526971427       -7.0640112266       -4.8778814703
 H         4.9219357559       -6.5607921945       -4.2234590373
 H         4.7961409818       -6.9938688914       -5.8723296443
 H         7.3330414938       -2.9367859750       -4.9007559622
 H         6.7110084284       -1.6035665885       -5.6680931518
 H         4.5648650925       -4.2230180173       -7.8101497462
 H         5.6473476636       -3.0362396712       -7.5823858214
 H         3.9962787820       -2.7836140175       -7.2001521599
 H         3.5953838496       -5.3139247282       -4.6055235028
 H         2.7728735773       -3.8096698267       -5.0614006040
 H         2.9272953765       -5.1468099282       -6.2035086333
 H         7.6951055046       -0.5991006279       -3.8745144571
 H         6.0560220289       -0.5804214402       -3.2681395040
 H         5.2759456752       -2.7326373937        0.6983188328
 H         5.6668279414       -1.2311562355        1.6377388960
 H         7.3929429261       -3.0847746582        0.5151635431
 H         8.0776295695       -1.6408599492        1.1188556327
 H         8.8532797065       -2.4944031068       -0.0887591235
 H         8.2416363060        0.2964821988       -0.0622514878
 H         8.9949032014       -0.3214197003       -1.4872860624
 H         7.5708765922        0.7019143294       -1.5849057184
 H         3.0141090731       -1.9072641780        1.5181083838
 H         3.3521584737       -1.6234418614       -0.2722657466
 H         1.5888414290        1.5287656263        2.7932028888
 H         0.0138642847        2.0298737247        2.5029049272
 H         1.4507151941        2.6042279532       -0.7366124816
 H         3.2112248322        2.1631151918       -0.9582095264
 H         2.5275295022        2.8098800317        0.5787783375
 H         1.5137789958       -1.0903257480       -1.0731032806
 H         1.3090488616        0.4065543715       -1.9129904217
 H         2.9207882583       -0.1607013848       -1.5807752178
 H        -0.8687752503       -0.2328308404        2.7953314900
 H         0.7004540236       -0.8805132741        3.3095714729
 H        -3.3050168626       -1.2531651312        6.1700880231
 H        -2.9583611537       -0.1494154811        4.8723983374
 H         1.6833978170       -0.5090383218        6.5133043120
 H         1.1744515871       -1.9388461217        5.7968634925
 H         0.7633816592       -1.6069236551        7.2614158340
 H        -1.7518853893        1.2198289183        6.4989900414
 H        -1.6914196798       -0.1227556956        7.6490241087
 H        -0.3603060396        0.8709545541        7.5720945793
 H        -4.6738539417       -1.9388086350        4.2457221101
 H        -3.3190075832       -3.1777701768        4.3122754070
 H        -6.0123035911       -3.3076497433        0.0690270122
 H        -6.6444164068       -2.4085431990        1.5017572948
 H        -1.8059019011       -1.5760916695        0.5191566107
 H        -2.1667407957       -3.1720481054       -0.0924047195
 H        -1.4428683038       -3.0652954531        1.4751911807
 H        -4.0962334515       -4.4105298414        0.7867982662
 H        -3.4261872702       -4.4972513677        2.3650874326
 H        -5.0059398349       -3.9434000115        2.3567545002
 H        -6.2582984526       -0.8787721246       -1.0645217427
 H        -7.4390201359       -2.0960022067       -1.0564280526
 H        -7.9545593457        2.1745526639        2.6338935061
 H        -6.5522351405        1.2042442509        2.2286870228
 H        -8.6594434333        1.9973016058       -2.1293788445
 H        -8.2854829631        0.3811962095       -2.4940482168
 H        -6.9600871641        1.3527119926       -2.1670712411
 H       -10.2693892280        0.4260844567       -0.5176749966
 H        -9.6135675495        1.0428457645        1.1392600453
 H       -10.1598857612        2.2256497684        0.1408874983
 H        -6.0378090624        3.3705660815        3.5376513076
 H        -6.5948773858        4.2163783921        2.1477334091
 H        -3.5464882102        3.8322955928       -0.9731174954
 H        -2.9111326390        5.4617955116       -0.7144227141
 H        -3.8416740254        6.5042957469        1.5207202788
 H        -5.2237887932        5.9364893302        2.3867579603
 H        -5.0639976208        5.7072818710        0.7831248791
 H        -3.0802282531        4.9735931605        3.8580148706
 H        -4.0437956100        3.5545683435        3.8678163967
 H        -2.3023861763        3.4670455804        3.2754037755
 H        -1.2918552005        5.0350344372       -1.9486571298
 H        -0.7979815468        3.8948886464       -0.5525522422
 H         0.4811169264        2.1622379936       -5.9368973066
 H         2.0553343669        2.5216922675       -5.0888643891
 H         0.9731025386        1.0915914764       -4.6400976197
 H        -1.0601283367        0.3075052781       -3.3357670398
 H        -1.3665085222        0.8003496124       -5.0222187305
 H        -2.6676386874        0.7716976957       -3.9763333845
 H        -2.1100833919        4.4727222192       -4.1894130146
 H        -1.4216000450        3.5342183267       -5.5053732271
 H        -3.0133674823        3.1287701268       -4.7653781750
 Na       -2.5213222117        1.0011160607        0.5136248730
