155

 C         5.0474213974       -5.7736834083       -4.3566774122
 C         5.3610495229       -4.9112172346       -5.4763444181
 C         4.9685922874       -3.2917481687       -5.4580144137
 C         5.3199457213       -2.5285598386       -4.1224691422
 C         6.7528349553       -2.0007386369       -4.1363991209
 C         5.6210340261       -2.5117599859       -6.6753252515
 C         3.4716450924       -3.1943818864       -5.5311055270
 O         5.9051871345       -5.2143847326       -6.5105850657
 O         4.4651991127       -2.3331667466       -3.2443971448
 C         7.0408688770       -1.0933765873       -2.8599763739
 C         7.2854070082       -1.8656211216       -1.5562532900
 C         7.4221141477       -1.1532073179       -0.1196290166
 C         5.9676886521       -0.9911902858        0.4141835331
 C         5.0320887854       -2.1737410221        0.8116372557
 O         7.3880795564       -3.0631620062       -1.5331433676
 O         5.4799659841        0.1683274379        0.2571823170
 C         8.2230663141       -2.1675923063        0.7482780848
 C         8.0231494941        0.2267603440       -0.2598258942
 C         3.5473542010       -1.7303540252        0.5288683118
 C         3.1482299675       -0.3822560283        1.1664426999
 C         2.4243120882        0.8022835938        0.3881633894
 C         0.8675904599        0.9211398056        0.7627003972
 C         0.3856336133        1.2957729645        2.1773803743
 C         3.2408238661        2.1374434536        0.6954249553
 C         2.6769165888        0.5820431126       -1.1615619099
 O         3.3162430916       -0.2186005950        2.3811959751
 O        -0.0392285747        0.5475411379       -0.0366203153
 C         0.4581203005        0.2210433555        3.1841964710
 C         0.1574914619        0.7040372118        4.5404753427
 C         0.0096109383       -0.4415871029        5.5474050444
 C        -0.7661831589       -1.6604496880        4.9135035191
 C        -2.2736092900       -1.5900430715        5.1081916418
 O        -0.0741431766        1.8542069688        4.8446955989
 O        -0.2625613027       -2.6289971898        4.3623802682
 C         1.4814595033       -0.9458215997        5.7455250276
 C        -0.5650371999        0.1977487580        6.8334125429
 C        -3.0355453590       -2.4452306981        4.0568701809
 C        -2.8601574505       -1.8481103197        2.6890272718
 C        -3.5216844839       -2.6662222794        1.4153152292
 C        -4.2363961496       -1.7031974789        0.2746694203
 C        -5.4895090398       -2.3028224834       -0.4860724522
 C        -2.2066899019       -3.2147494550        0.7628972312
 C        -4.5145727488       -3.7072862328        2.0091122458
 O        -2.3260997449       -0.7583994932        2.5190200966
 O        -3.9310209259       -0.5706575548       -0.0283436743
 C        -6.4328798944       -1.3622496564       -1.2381464844
 C        -7.5560418678       -0.9042610815       -0.2957614538
 C        -8.2951436775        0.4229960558       -0.6610454836
 C        -7.4890307388        1.6061022414       -0.1075694485
 C        -7.7468869124        1.9590493130        1.3723885736
 O        -7.8143179648       -1.4744260795        0.7670430874
 O        -6.7717686966        2.3299535328       -0.7186335800
 C        -8.4876746742        0.7499332209       -2.2385830967
 C        -9.7315751529        0.4639830006       -0.0745000156
 C        -6.8326090326        3.1126025711        1.9456986379
 C        -5.3407458807        2.9165363924        1.5766682077
 C        -4.2781042343        4.2343165038        1.7276634807
 C        -3.1322060457        4.1479376447        0.6351798232
 C        -3.6291370117        4.3332045925       -0.7776379673
 C        -5.0592149929        5.5283974352        1.5037642003
 C        -3.6492258726        4.0692635577        3.0529332257
 O        -4.8369131628        1.8486532700        1.4178490187
 O        -1.9947699951        3.7189290813        0.8309874778
 C        -2.4179323219        4.2777172929       -1.7286880700
 C        -2.2401363889        2.9713964154       -2.4095823431
 C        -1.3334582481        2.8366699652       -3.7662623871
 C         0.0638357648        2.3843126017       -3.2479457681
 C         1.0972844224        1.7185795203       -4.2667653311
 O        -2.8058910462        1.9997351659       -1.9517764376
 O         0.3268297002        2.5461375873       -2.0536659450
 C        -2.0375778098        1.8152360242       -4.6682019833
 C        -1.1208540275        4.2296703050       -4.4304846845
 H         3.9727577799       -5.6633802289       -4.0944496232
 H         5.4305769872       -6.7721189500       -4.3950792554
 H         5.3949178546       -5.4023974576       -3.3751878675
 H         7.4709416230       -2.8022532792       -4.0380214601
 H         7.0206237606       -1.3935294153       -5.0064982984
 H         5.1967240070       -2.7318376401       -7.6865376329
 H         6.6766348087       -2.7946925955       -6.7562458300
 H         5.5921579609       -1.4584471279       -6.5064945768
 H         2.9522566112       -3.4638742421       -4.5858345876
 H         3.1674974871       -2.2218966272       -5.9809938829
 H         2.9078323250       -3.8404364633       -6.2301042212
 H         7.9374185169       -0.4166788200       -2.9992119992
 H         6.2230982279       -0.4535678451       -2.6472892239
 H         5.3819514021       -3.0412662245        0.3083700273
 H         5.1608857447       -2.3269781676        1.9242677817
 H         7.8911574465       -3.1725051573        0.6804651326
 H         7.9759979977       -1.9005379188        1.8245003257
 H         9.2387992399       -2.1206892990        0.5607845095
 H         8.2664344333        0.4857481371        0.7713067991
 H         8.9018932082        0.3484627505       -0.8769793202
 H         7.3582385249        0.9988038437       -0.6029727590
 H         2.8630346294       -2.4482054257        0.9049337994
 H         3.1834013310       -1.7028306260       -0.5230910804
 H         0.9980634955        2.1217649915        2.5921591470
 H        -0.6480761945        1.5586367493        2.1245235754
 H         2.9813069319        2.7564156319       -0.1398903219
 H         4.3123797813        1.9492452203        0.7514940315
 H         2.8481812840        2.4899051915        1.7127733412
 H         2.3262562745       -0.3599320271       -1.5885273821
 H         2.0616087891        1.3047777020       -1.6843198826
 H         3.6972253246        0.6314643074       -1.4407027752
 H        -0.1745784292       -0.6372313492        2.9434496871
 H         1.4845558602       -0.2236551094        3.0323112289
 H        -2.5808810315       -2.0045125220        6.0551539585
 H        -2.6230362688       -0.5509134694        5.0809570501
 H         2.3008074441       -0.2703325792        5.9287843492
 H         1.8506298720       -1.3799322402        4.8326019321
 H         1.7249269801       -1.6209782111        6.6116974826
 H        -1.6219993622        0.3923155897        6.6146919582
 H        -0.5415313355       -0.5260835705        7.6435469091
 H        -0.0833671622        1.1345468578        7.0478274196
 H        -4.1278231822       -2.3558475598        4.3050971045
 H        -2.8217769419       -3.5272934444        4.0648158735
 H        -5.3765907622       -3.2030028395       -1.0449561536
 H        -6.1099769259       -2.7556918912        0.3094953150
 H        -1.4646445930       -2.4265954765        0.6801888848
 H        -2.3001765573       -3.7239993971       -0.1812297059
 H        -1.8122439711       -3.9226829382        1.4670640630
 H        -4.8395718182       -4.3718790574        1.2294698190
 H        -4.0731180422       -4.3256587711        2.8637334162
 H        -5.3658249918       -3.2351278018        2.5141483430
 H        -5.8196631904       -0.5320023050       -1.4938829712
 H        -6.7560920502       -1.7271644713       -2.2378338492
 H        -8.8182746294        2.3126894861        1.3943675946
 H        -7.7970770453        1.1559486296        2.1354069112
 H        -9.3199394016        1.3836320283       -2.4424300474
 H        -8.7188502930       -0.1324035046       -2.8153281588
 H        -7.5054834801        1.1655493147       -2.6033499288
 H       -10.3159753273       -0.3017755779       -0.5675162166
 H        -9.9019288494        0.1565257221        0.9820897018
 H       -10.1300901313        1.3528685177       -0.5146117404
 H        -6.9886035941        3.0275859387        3.0021585883
 H        -7.2595841955        4.0543084203        1.5814517875
 H        -4.2926312503        3.4402766576       -0.8371921620
 H        -4.3200405113        5.2144375357       -0.9514354346
 H        -4.4070271894        6.3816843191        1.3392286950
 H        -5.8149122305        5.8566693812        2.2470069697
 H        -5.7761183962        5.4678278238        0.6141114687
 H        -3.3922789180        5.0523789615        3.4795991553
 H        -4.3130481159        3.4285061327        3.6277490501
 H        -2.7626565083        3.5557411898        2.9194715044
 H        -2.3996257392        5.0677995726       -2.3935537381
 H        -1.5037508989        4.5360693631       -1.1466362765
 H         0.9657534305        2.1310769724       -5.3007987603
 H         2.1587443927        1.8377805243       -3.9819321981
 H         0.8921281964        0.6661988943       -4.2282713143
 H        -2.3043901168        0.8992587691       -4.2487715717
 H        -1.4345423994        1.5078099389       -5.5543986339
 H        -2.9185877694        2.3573976294       -5.0205807073
 H        -0.1252832509        4.6205441053       -4.2125633419
 H        -1.3875713618        4.2581649042       -5.5226882237
 H        -1.8161263084        4.9481280342       -4.0204413955
 Na       -2.2613067324        1.0772665575        0.2891745177
