155

 C         5.0545625237       -4.8853239712       -3.6328715636
 C         5.2849604370       -4.3466587316       -4.9845800665
 C         4.9450017140       -2.7457965528       -5.1952641765
 C         5.3732893428       -2.0854161311       -3.9166764365
 C         6.9276104428       -2.0471246188       -3.8662697477
 C         5.6639194843       -2.3797504461       -6.5711326263
 C         3.4039021307       -2.5549562054       -5.5281690309
 O         5.6421518337       -4.9770113924       -5.9148267897
 O         4.7184232412       -1.5661440182       -3.0311940596
 C         7.5310204864       -1.3143055279       -2.6299975041
 C         7.2399699207       -2.0380605379       -1.3265750748
 C         7.3709588546       -1.4005848569        0.0564869715
 C         5.9112631016       -1.0443942581        0.4651394726
 C         4.8295771531       -2.1222208787        0.8546435260
 O         6.8285006190       -3.1958049719       -1.3194785882
 O         5.5707659702        0.1382844114        0.4186600625
 C         8.0500767115       -2.4261190643        1.0655817091
 C         8.1932688250       -0.1267530927       -0.0155294300
 C         3.4371291861       -1.6977481892        0.2622044770
 C         3.0306927816       -0.3687966332        1.0730697541
 C         2.3669219929        0.8590720325        0.3573311947
 C         0.8195898306        0.8882186118        0.8120232315
 C         0.5791399310        1.3666547020        2.2460708327
 C         3.0697972795        2.1780963022        0.9755077183
 C         2.4065524131        0.9415392723       -1.1816016909
 O         3.2046230553       -0.3945168481        2.2698143099
 O        -0.0421278588        0.4764738648        0.0839488828
 C         0.4564712842        0.0687001138        3.1980454628
 C        -0.0083585165        0.5005633881        4.5880011394
 C         0.0627901034       -0.5526018406        5.7894043279
 C        -0.9472219359       -1.8079920771        5.3357909629
 C        -2.4164460528       -1.3083801794        4.8423601732
 O        -0.3763435135        1.6634118399        4.7293579397
 O        -0.6069042290       -2.9189116072        5.3345292912
 C         1.5277745755       -1.0497572326        5.9847030536
 C        -0.4982971612        0.0406062196        7.0682003583
 C        -2.8475511566       -2.2414514221        3.7369150065
 C        -3.0520192740       -1.5492895392        2.3827031083
 C        -3.1510528699       -2.5993623470        1.0957286585
 C        -3.8192274702       -1.8236502108       -0.0752170054
 C        -5.1687773962       -2.3195198551       -0.7548534643
 C        -1.6924920023       -2.9992691570        0.7321486640
 C        -3.9570114735       -3.8581474488        1.4328749715
 O        -2.9391801041       -0.3846512485        2.1372152019
 O        -3.1915058081       -0.9017803650       -0.5537300194
 C        -6.3112537870       -1.4005105604       -1.4572871283
 C        -7.3200362387       -0.9652885262       -0.4547629912
 C        -8.2475103128        0.1875372962       -0.9364233475
 C        -7.5904093106        1.5807332633       -0.3272787196
 C        -7.3511809502        1.4385956309        1.1777226650
 O        -7.5564230689       -1.5489205161        0.5762462825
 O        -7.3600974515        2.5878889285       -0.9425914619
 C        -8.3429637582        0.2950184605       -2.4855874397
 C        -9.7184891114        0.0462663732       -0.4223154968
 C        -6.6998329445        2.6543773548        1.7686028899
 C        -5.2397873712        2.6362601930        1.4292750669
 C        -4.2524157108        3.8638027055        1.7506665063
 C        -3.2949360914        3.9949235919        0.5143839792
 C        -3.8977383230        4.3916640905       -0.8118501456
 C        -4.9986074356        5.2323331617        1.9202588627
 C        -3.3947085533        3.6811899880        3.0011382469
 O        -4.7239471616        1.6517342730        0.8831166201
 O        -2.1102411053        3.6961135084        0.6160509814
 C        -2.8359416671        4.5177520036       -1.8657207871
 C        -2.2454756158        3.1366497671       -2.2787731820
 C        -1.6227745843        2.9168464941       -3.6885637661
 C        -0.1107538534        2.5942425887       -3.5395761085
 C         0.5746515763        1.5564617825       -4.3696546029
 O        -2.1767177517        2.2413541090       -1.4663534778
 O         0.6903027750        3.2828388765       -2.8909681036
 C        -2.2756604584        1.6481460645       -4.2503917372
 C        -1.6452697121        4.1484089310       -4.7022336879
 H         4.0666258262       -4.5593600121       -3.0930479594
 H         4.9283343397       -5.9884166464       -3.6757541860
 H         5.7695225420       -4.7010217687       -2.8879585384
 H         7.4776386703       -2.9711740191       -3.7554695419
 H         7.2406947393       -1.4914553043       -4.7348292611
 H         5.0302023149       -2.8851026448       -7.3276294757
 H         6.7519772640       -2.7241169225       -6.6261745760
 H         5.5153085067       -1.2619765121       -6.8017416541
 H         2.7275852355       -3.0453707430       -4.7609055829
 H         3.0966427131       -1.5022612075       -5.4159186808
 H         3.0372373386       -2.9287810040       -6.5214224193
 H         8.5800551286       -1.3765923150       -2.7945357081
 H         7.1827909826       -0.2867536253       -2.5299311255
 H         5.2169375135       -3.0814670931        0.4556716112
 H         4.7605789960       -2.1936998532        1.9317168617
 H         7.7469327857       -3.3211079503        0.7038751851
 H         7.8005617433       -2.2323330148        2.1031383417
 H         9.1106774531       -2.4064233002        0.9619914009
 H         8.4972950205        0.2688077674        0.9771925228
 H         9.1671112884       -0.1902392426       -0.4915345838
 H         7.6176234481        0.7162961322       -0.3825727595
 H         2.6423413706       -2.3867849655        0.5724059095
 H         3.4255054767       -1.5598841825       -0.8354887688
 H         1.2027022083        2.0371077579        2.8659119718
 H        -0.3942053835        1.8767320344        2.3053442682
 H         3.5493550656        1.8662149569        1.9087587860
 H         2.3311029840        2.8426939221        1.1093910196
 H         3.8312252566        2.3813825821        0.1701033509
 H         1.9764454909        0.1047807380       -1.7051411951
 H         1.7208677196        1.7868821412       -1.3352704956
 H         3.3232466877        1.2593348379       -1.6772264044
 H        -0.1049218739       -0.7721905493        2.6912164494
 H         1.5204665524       -0.2924493071        3.3356144522
 H        -2.9904799790       -1.3197041216        5.7348606431
 H        -2.2903403466       -0.2283411411        4.4704938355
 H         2.2298315782       -0.2026792022        5.9592178939
 H         2.0671472834       -1.8696385976        5.4748427286
 H         1.7642939599       -1.3868834876        7.0053926003
 H        -1.5256487271        0.3525612005        6.9320026108
 H        -0.4024275907       -0.7328028325        7.8221266977
 H         0.1085430090        0.9195300613        7.4096364999
 H        -3.7039324309       -2.8972587858        3.9536440660
 H        -2.1380057547       -3.0620563081        3.6393824998
 H        -4.8321433595       -2.9818862764       -1.5850019843
 H        -5.7870002975       -2.9945054569       -0.1227229171
 H        -1.0421930708       -2.1780901715        0.5463939560
 H        -1.7451048819       -3.5370947647       -0.2057655955
 H        -1.2413380361       -3.6789190129        1.4541013156
 H        -4.2449903912       -4.4690483185        0.5542529747
 H        -3.2773475835       -4.4805463392        2.0224865164
 H        -4.8939482676       -3.6219009650        2.0736510750
 H        -5.8751593380       -0.5477829786       -1.9535846594
 H        -6.7740064326       -2.0587409175       -2.1375461107
 H        -8.2998540932        1.2356384907        1.6519455017
 H        -6.7205762172        0.5309030162        1.4477662564
 H        -9.1529855131        0.9407904776       -2.6998176474
 H        -8.6800774610       -0.7196917364       -2.7480483501
 H        -7.4942115010        0.6244841089       -3.0668058513
 H       -10.1957164241       -0.6939870993       -1.0185864909
 H        -9.4607395453       -0.2187140883        0.6720694736
 H       -10.2013038114        0.9219846495       -0.2583238829
 H        -6.8426953314        2.7117584267        2.8975083707
 H        -7.2735658070        3.5070463816        1.3320848836
 H        -4.6458673061        3.6402758909       -1.1450110911
 H        -4.5357578301        5.2353557648       -0.6965907318
 H        -4.3647024868        6.0863098836        1.8789061059
 H        -5.5046624560        5.2708244946        2.9365354683
 H        -5.7714176708        5.3694483889        1.1391982985
 H        -2.5511354240        4.4063773555        2.9635412930
 H        -3.9620671669        3.8892021006        3.8797117740
 H        -2.9115746744        2.6557568936        2.8365365014
 H        -3.3082241826        4.9660643533       -2.8443465928
 H        -2.0292881931        5.2003320238       -1.6071671277
 H         0.7889153177        1.9505894771       -5.3542984510
 H         1.5955985643        1.4729989711       -3.9269804918
 H         0.0620303863        0.5841975620       -4.3270574072
 H        -2.1700929786        0.7637483001       -3.5496681599
 H        -1.9210883871        1.3960259909       -5.2381989201
 H        -3.3414715902        1.8135106000       -4.3303497062
 H        -2.3294913442        3.9336667722       -5.5056329003
 H        -1.9547866678        5.1301724049       -4.2263906979
 H        -0.6693835430        4.2581033768       -5.2223663036
 Na       -2.2991327252        1.0489241098        0.3971906807
