155

 C         3.6693226656       -3.2831254044       -3.4324042257
 C         4.6403835126       -2.9682380610       -4.4668338768
 C         5.1851715900       -1.4714093692       -4.6653631723
 C         5.7696949558       -0.9450981696       -3.2911300327
 C         7.1780707549       -1.6259961353       -3.0051635581
 C         6.3365317777       -1.5305218270       -5.7153586002
 C         3.9400098708       -0.6626722208       -5.0245233419
 O         5.1042060109       -3.8272822864       -5.1601813052
 O         5.1507138447       -0.2749284904       -2.4715997511
 C         7.7077961597       -1.4585716572       -1.5418781755
 C         7.0112580602       -2.3457328981       -0.5202272490
 C         7.4010759530       -2.1814381697        0.9352242852
 C         6.4430247762       -0.9473937542        1.5202064478
 C         4.9967287067       -1.2529452155        1.5129944614
 O         6.0730602389       -3.0719781144       -0.8604046078
 O         6.8974194970       -0.0016043552        2.1314909618
 C         7.0199974216       -3.4157144777        1.7870831728
 C         8.8760664344       -1.6330259669        1.1081112375
 C         4.0759008674       -0.1952683947        0.7903061668
 C         3.2493312120        0.5861878435        1.8522623087
 C         2.4481107291        1.8581653122        1.3611503205
 C         1.0700220387        1.3169038029        1.5428784636
 C         0.4798009347        1.3759534333        3.0057792929
 C         2.7413087933        2.9721794638        2.4202833502
 C         2.6144193097        2.3067038052       -0.1144722464
 O         3.3893221051        0.3271743776        3.0262723944
 O         0.5286619805        0.7708064742        0.6068241239
 C        -0.4337727586        0.0567861548        3.2890993172
 C        -1.5682726035        0.2221768462        4.3191189916
 C        -1.4654349051       -0.7323805206        5.5080709981
 C        -2.0114818149       -2.1168906674        5.0859219641
 C        -3.3908531502       -2.2464510979        4.3617167774
 O        -2.4483094767        1.0802171644        4.2284734413
 O        -1.2103709598       -3.0963805775        5.1499812453
 C         0.0383080033       -0.9285709498        6.0345676956
 C        -2.3150355612       -0.1656133734        6.6249226516
 C        -3.1495544314       -3.0937989172        3.0881045720
 C        -2.9929434147       -2.2879839590        1.8211919328
 C        -2.4470872803       -3.1972112084        0.4895605045
 C        -2.7204536293       -2.4093274380       -0.7355442105
 C        -3.7008613299       -2.7983998027       -1.8340879620
 C        -0.9232168301       -3.1340821448        0.7520288653
 C        -2.9230931347       -4.7440114790        0.5030203753
 O        -3.0193945668       -1.1153125528        1.7201596403
 O        -2.2825411996       -1.2999759715       -0.9485144632
 C        -4.7975375220       -1.7716483691       -2.0497193819
 C        -6.1257733570       -1.9475016261       -1.1554460269
 C        -7.3132064879       -1.0266504488       -1.5113308754
 C        -6.7293159174        0.3968029855       -1.1021180292
 C        -6.5933196123        0.7786095674        0.4311947641
 O        -6.2712008542       -2.7715282435       -0.2631312546
 O        -6.4538134354        1.1905696561       -1.9780600955
 C        -7.7189782106       -0.9043120026       -2.9663182841
 C        -8.6074938280       -1.4014363008       -0.6855301874
 C        -6.1925228493        2.2378023250        0.5610808827
 C        -4.6178743757        2.3111454815        0.7785369013
 C        -4.0695322019        3.8056973201        1.0334444116
 C        -2.5714157025        3.7991250390        0.4706429493
 C        -2.0924789710        4.8161633919       -0.5624296950
 C        -4.8918687713        4.8866763692        0.4095080774
 C        -4.2220289650        3.8999379043        2.5815479198
 O        -3.8406130298        1.3865588046        0.6898930331
 O        -1.7938812070        2.9525077879        0.8349343886
 C        -1.3158236806        4.1365996947       -1.7551406564
 C        -2.1256238789        3.0201753132       -2.4058337383
 C        -2.9051702522        3.1468198470       -3.7770824083
 C        -2.1560563186        4.0833407884       -4.7669130436
 C        -0.8569711265        3.4591165736       -5.3724218930
 O        -2.2329613169        1.9528253455       -1.8513558738
 O        -2.4108189000        5.2682159315       -4.8316280579
 C        -3.2385650793        1.7041874348       -4.3851702194
 C        -4.2655074264        3.9168490868       -3.4473392589
 H         3.3803105708       -4.2493304237       -3.3864284794
 H         4.2115023402       -3.0597292477       -2.5356019554
 H         2.8600124760       -2.5110783607       -3.5640958570
 H         6.9949039005       -2.7306045454       -3.0687674548
 H         7.9697668557       -1.2948873616       -3.6758848836
 H         5.9480430904       -1.7407055359       -6.7486100124
 H         7.2257286930       -2.2147035039       -5.4633045382
 H         6.8631755296       -0.4996471287       -5.8845624200
 H         3.2566145671       -0.8602887658       -4.1909814249
 H         4.2347427616        0.3531612897       -5.2214434917
 H         3.4430293577       -1.0489511331       -5.9334282342
 H         8.7252458119       -1.7146076797       -1.5800951080
 H         7.5945853254       -0.3895548698       -1.1823830961
 H         4.8068038423       -2.2309826136        0.9106338261
 H         4.6727938703       -1.4567368604        2.5119419156
 H         6.3324166804       -3.9632171273        1.1592347045
 H         6.3693593843       -3.3259981719        2.7304125374
 H         7.8118358471       -4.0530837829        1.9760719168
 H         9.0611155471       -1.6786836541        2.1636121455
 H         9.5776390921       -2.1372542942        0.5034476428
 H         8.8942573399       -0.6430387538        0.7535187938
 H         3.4528637418       -0.7068052310        0.0170042005
 H         4.6680098044        0.4936832789        0.2508859490
 H         1.2311659279        1.4694039447        3.8257845380
 H        -0.1341530499        2.3011242536        3.0221646044
 H         3.4390980088        3.8551067724        2.1151617200
 H         3.1691143819        2.5676810203        3.3292455025
 H         1.8560840691        3.4555379274        2.6890719512
 H         2.3862491916        1.4810801025       -0.8017720693
 H         1.8558040863        3.0866072441       -0.3127732726
 H         3.6406035134        2.5980458209       -0.3093871629
 H        -0.8929701273       -0.1303728527        2.3153934100
 H         0.1261136295       -0.7939804276        3.6066117439
 H        -3.9492758442       -2.8087039222        5.0419124410
 H        -4.0069388585       -1.2356761927        4.2388998103
 H         0.5185752832        0.0111544094        6.0360108154
 H         0.5295198208       -1.5697477671        5.3752248259
 H        -0.0394248923       -1.1479007503        7.0789265728
 H        -3.3105494153        0.1331932827        6.3538637849
 H        -2.4197178504       -0.9006308888        7.3921682914
 H        -1.7605239401        0.6621122602        7.0089660031
 H        -3.9829538831       -3.7369725299        2.7553714779
 H        -2.2706706403       -3.7191010711        3.1927533862
 H        -3.2046233381       -3.0360245614       -2.8342070241
 H        -4.1710807868       -3.7147187007       -1.5975407308
 H        -0.5072886198       -2.1258423015        0.6829758441
 H        -0.4837184030       -3.7767808308        0.0030906675
 H        -0.6079522767       -3.4981007248        1.7069080402
 H        -2.5188189551       -5.3115328359       -0.3135524273
 H        -2.7335434040       -5.2632603958        1.5182218061
 H        -4.0216511729       -4.8474293162        0.4138529333
 H        -4.3735602335       -0.7014728397       -1.7649824262
 H        -4.9876831030       -1.6272881919       -3.1122609948
 H        -7.5438429267        0.5350377608        0.9003139635
 H        -5.8541361205        0.1301062633        0.9203216379
 H        -8.5115897943       -0.2074335499       -3.0658675262
 H        -8.0656705728       -1.8233427444       -3.3596739781
 H        -6.7910687176       -0.7333204930       -3.5129668076
 H        -9.0849695847       -2.2491796111       -1.2473605388
 H        -8.4717980662       -1.6631444742        0.3081631887
 H        -9.3514997538       -0.5312385952       -0.7451377906
 H        -6.6954741157        2.7876610873        1.3530131482
 H        -6.2944663982        2.7234591896       -0.3610251350
 H        -2.9237467953        5.4297001623       -0.9468120925
 H        -1.3703485018        5.3336371594        0.0759808455
 H        -4.3932280143        5.8543678774        0.3848084796
 H        -5.8010550579        5.0639028454        1.0399619699
 H        -5.3695810661        4.6791259797       -0.5831135288
 H        -4.1628725617        4.9102419719        2.9014833437
 H        -5.1546707098        3.4244208351        2.9088068479
 H        -3.4740146472        3.2359107831        3.1887462553
 H        -1.2238682334        4.9754409273       -2.4624873024
 H        -0.3775315681        3.8347125674       -1.4657204218
 H        -1.0853245979        2.5564268938       -5.9816551972
 H        -0.2712158941        4.1350488187       -5.9991327920
 H        -0.3245021089        3.0452865795       -4.5384639357
 H        -2.4659282754        1.0619826202       -4.7051929511
 H        -3.7616873792        1.9094319486       -5.3548750923
 H        -3.9592162970        1.2726328841       -3.7557518562
 H        -4.7702792291        3.6229985655       -2.5392689763
 H        -4.0643345277        4.9822349277       -3.4161898184
 H        -4.9387749187        3.7942732472       -4.2901470397
 Na       -1.9246116129        0.5801388550        0.2566836040
