155

 C         4.4808321193       -3.3817019978       -3.3241583044
 C         4.6738810556       -2.5799520724       -4.6499264956
 C         5.3943475625       -1.2266552044       -4.5050515210
 C         5.9906069461       -1.0346249723       -3.0572864487
 C         7.2053452192       -1.7308011186       -2.6387622752
 C         6.4705733562       -1.3049541590       -5.6014366426
 C         4.4431112345       -0.0101150369       -4.8229233644
 O         4.3915079166       -2.9789419382       -5.7853669068
 O         5.4447189627       -0.2020446098       -2.3234086466
 C         7.7310679894       -1.6344987395       -1.2578924897
 C         6.9293789595       -2.4770813199       -0.2400435849
 C         7.2699980706       -2.2770792725        1.3252856120
 C         6.6868562605       -0.8561733071        1.7702391016
 C         5.3497520480       -0.9389627834        2.6349130117
 O         6.0180196673       -3.2062961730       -0.6301849185
 O         7.2198434379        0.1667623328        1.4541673881
 C         6.8271695773       -3.4569393516        2.2186861757
 C         8.8537616976       -2.1394427380        1.3990544428
 C         4.0522492379       -0.3400900545        1.9143137702
 C         3.3956873033        0.8024810423        2.7539495418
 C         2.5396812526        2.0381318778        1.7991474242
 C         1.1412532885        1.5470967240        1.9292011433
 C         0.4808150496        1.6326129911        3.2806940344
 C         2.6189708331        3.4212189207        2.6656502525
 C         3.0019690366        2.1662649241        0.3147781083
 O         3.3330428312        0.9467372717        3.9405228161
 O         0.5432257024        1.1763922474        0.9207999193
 C         0.0650188221        0.2129303236        3.9057616469
 C        -1.2570663819        0.3240073628        4.6925975633
 C        -1.6110023730       -0.8588488763        5.7411463355
 C        -1.8628912972       -2.0565491899        4.7690101033
 C        -3.2605451865       -2.1504680646        4.0580246543
 O        -2.0523801316        1.1674347815        4.5783735785
 O        -0.9955050189       -2.8601329714        4.5996779927
 C        -0.4658997698       -1.1354646671        6.8048736791
 C        -2.8620107583       -0.3824268647        6.3774946746
 C        -3.1887403541       -3.1201672733        2.8780358899
 C        -2.5727776162       -2.3744028233        1.6385363506
 C        -2.5438660169       -3.0878004384        0.1689890802
 C        -2.6701511296       -2.0773992196       -1.0426300169
 C        -3.3624987372       -2.4546806530       -2.4282350477
 C        -1.1169429440       -3.7387644574        0.1243656806
 C        -3.5688092110       -4.2447718126        0.0490524978
 O        -2.1773450557       -1.2282342614        1.7756781546
 O        -2.0219284428       -1.0212899080       -0.8959605954
 C        -4.6001782264       -1.5192689104       -2.5758466348
 C        -5.7958681296       -2.1667668530       -1.8491316564
 C        -7.1687791509       -1.3142675860       -1.8007833874
 C        -6.8344229156        0.1956173602       -1.5173019765
 C        -6.7312168939        0.6899299070       -0.1220769544
 O        -5.8680100371       -3.3211501692       -1.5363780765
 O        -6.5049704946        0.9332505128       -2.4468162592
 C        -7.7247101498       -1.4190986791       -3.2973996019
 C        -7.9929165101       -1.9480221784       -0.7530679494
 C        -6.2258554929        2.1784880898        0.0290855832
 C        -4.7427621357        2.3022151891        0.4690744997
 C        -4.2273212236        3.6494160181        0.8700310017
 C        -2.7665438430        3.7657761618        0.2780097747
 C        -2.3205803283        4.4902676117       -0.9677681475
 C        -5.1091737493        4.8173772697        0.6165811839
 C        -4.2007403109        3.4933873471        2.4752377892
 O        -3.9970271120        1.3580883835        0.5832211916
 O        -1.9205831280        3.1073239294        0.8396036338
 C        -1.6053733790        3.6159114683       -1.9817367761
 C        -2.5669018129        2.6149860653       -2.5388715197
 C        -3.3869282307        2.9590978350       -3.9047686935
 C        -2.6918541268        4.1375118497       -4.5432067852
 C        -1.7145227501        3.9133981520       -5.6351500512
 O        -2.7738333449        1.5837046185       -1.9573338545
 O        -2.9098853122        5.2613980565       -4.1257980651
 C        -3.4331436714        1.6601960084       -4.7632840796
 C        -4.8568728009        3.4304478239       -3.5685809692
 H         4.4681999991       -2.8246409368       -2.2789990377
 H         3.5808328595       -3.9032396436       -3.4619722001
 H         5.2862064131       -4.0668698849       -3.2528077323
 H         7.1285744699       -2.7965138049       -2.9492782845
 H         7.9214157948       -1.4736103511       -3.3810347686
 H         5.9376371453       -1.3474371543       -6.5373534860
 H         7.0865857078       -2.1524609470       -5.5742105353
 H         6.9870676328       -0.4248710638       -5.6373237196
 H         3.7454965251        0.1587752493       -4.0077370863
 H         5.0511802694        0.8834039706       -4.8094276574
 H         4.0034856625       -0.2653455911       -5.7647593323
 H         8.7457727742       -1.8944643687       -1.3385589568
 H         7.7002997366       -0.6016562881       -0.8105777943
 H         5.0350547687       -1.9862170787        2.7390446376
 H         5.4644498475       -0.4390224959        3.6179050517
 H         5.9974009161       -4.0493837736        1.6780552812
 H         6.4808160312       -3.3548539203        3.2283637727
 H         7.5964072354       -4.3251461291        2.3433907256
 H         9.1287712150       -2.1230320080        2.4776662168
 H         9.3237476037       -3.0390399641        0.9508423984
 H         9.0965863529       -1.1181350326        0.9991260934
 H         3.3098774159       -1.1841685862        1.7968188685
 H         4.2954424014        0.0167579532        0.9083376519
 H         0.9560905141        2.2100975377        4.1174381310
 H        -0.4534045425        2.2109404071        3.2894953841
 H         3.5193890260        3.9734278842        2.4812000204
 H         2.5321426712        3.1967830217        3.7475947164
 H         1.7520007013        4.0751635604        2.4585478778
 H         2.4018389709        1.4858650354       -0.3106673923
 H         2.7780050320        3.2063827160        0.0056733236
 H         4.0810527793        2.0603903867        0.2655563405
 H        -0.0113961521       -0.6979355911        3.2736918842
 H         0.9007283326       -0.0904967650        4.5619172232
 H        -3.8925112712       -2.3550733795        4.9668049262
 H        -3.6719974636       -1.2005732616        3.6952639680
 H        -0.0598366158       -0.1243971930        6.9874739762
 H         0.2273105861       -1.9286671725        6.3878281095
 H        -0.8287389554       -1.8038532562        7.5444700791
 H        -3.5991363205        0.0652166973        5.6609860179
 H        -3.3257767897       -1.1275463033        7.0868552885
 H        -2.6940844819        0.4223160529        7.0626525445
 H        -4.0698682509       -3.5862298736        2.4644137995
 H        -2.5595098475       -3.9672536561        3.1752635421
 H        -2.6474478209       -2.1778894236       -3.2261967286
 H        -3.6500169978       -3.4827532328       -2.3949914602
 H        -0.3843909620       -3.0182038304       -0.2435118151
 H        -1.0683993045       -4.4396945596       -0.6987492509
 H        -0.8205183941       -4.1447130770        1.0662031689
 H        -3.5580221237       -4.7237085674       -0.9609700896
 H        -3.5122626018       -5.0456251799        0.7437316167
 H        -4.5088840904       -3.7648779476        0.1193417884
 H        -4.4966942305       -0.5382474828       -2.1154193731
 H        -4.7611624533       -1.6047541196       -3.6053676096
 H        -7.6270496385        0.5332669270        0.4705087684
 H        -5.9828266031        0.0800579310        0.4288286126
 H        -8.6998418450       -0.9018720008       -3.5964495016
 H        -7.8841616848       -2.5000716178       -3.4401098861
 H        -7.1162573669       -0.9695037113       -4.0623503183
 H        -8.2201345055       -2.9496700236       -0.8441099092
 H        -7.4979908744       -1.8427595077        0.2894298559
 H        -8.9089695510       -1.3833199305       -0.6327186810
 H        -6.7853263502        2.9338941554        0.7306263754
 H        -6.2070420877        2.6354421341       -1.0073612848
 H        -3.1734022711        5.0558615877       -1.3991473817
 H        -1.6010482562        5.2784017431       -0.6912108451
 H        -4.8547566207        5.8161094562        1.0667194920
 H        -6.0821150821        4.6065392905        0.9135352566
 H        -5.1970877626        5.1104855263       -0.4098188489
 H        -3.5951322196        4.1923110403        3.1012634722
 H        -5.2597102742        3.5670877096        2.8817978347
 H        -3.7353135605        2.5986917127        2.7675607940
 H        -1.1504452611        4.2630557372       -2.7420468179
 H        -0.7713321012        3.1162859112       -1.3465519947
 H        -2.2459489421        3.9520643181       -6.6326228352
 H        -0.9193841786        4.6194882982       -5.5363459465
 H        -1.2493043221        2.9366626040       -5.5843150999
 H        -2.5090959213        1.1366684913       -4.8869461561
 H        -4.0714385985        1.8119255997       -5.6524498237
 H        -4.0275104076        0.9412824293       -4.1621832491
 H        -5.4383663473        2.7344741612       -2.8902894411
 H        -4.9081340840        4.4217877961       -3.2080658786
 H        -5.3980337419        3.3703196590       -4.5515172402
 Na       -1.7004653293        0.7284055727        0.3841495669
