155

 C         4.2811142446       -3.1474576326       -3.2873707668
 C         4.6027443585       -2.1731485261       -4.3330031748
 C         5.6069134442       -0.9922925738       -4.0963219477
 C         6.1487525504       -1.1265791124       -2.6483999031
 C         7.6455116232       -1.7191694838       -2.3879316511
 C         6.7959232932       -1.0070843122       -5.1814707218
 C         4.8512848814        0.3491541710       -4.1123245036
 O         4.0199017824       -2.1870561324       -5.4081324927
 O         5.5430954329       -0.7528487121       -1.6861462515
 C         8.0023680631       -1.7601465322       -0.9178425188
 C         7.0043077158       -2.5086275684       -0.1034180968
 C         7.0065399705       -2.2606761466        1.4632593630
 C         6.9210865843       -0.8153183730        1.9107680738
 C         5.7036489012       -0.2404806860        2.7762281148
 O         6.2529363254       -3.2796036963       -0.5927367617
 O         7.7875459984       -0.0278579389        1.5810556749
 C         6.0930039825       -3.2423746460        2.2278548293
 C         8.5411293437       -2.6807164834        1.9464748183
 C         4.6094102422        0.5773968696        1.9730130817
 C         3.3620462445        0.9830094284        2.7930512663
 C         2.4142714903        2.0567585007        2.0776457394
 C         0.9357897406        1.8272925061        2.2793656073
 C         0.2380589536        2.0126367430        3.5978870700
 C         2.7396831688        3.4612057501        2.6992739018
 C         2.7039952280        2.1749482808        0.5135225263
 O         3.0655889437        0.5750686319        3.9034750124
 O         0.2764576790        1.4891590849        1.2709167172
 C         0.0236525647        0.6788563163        4.4037967715
 C        -1.2891343853        0.6092121294        5.0966934245
 C        -1.7328416106       -0.9332819084        5.4739754805
 C        -1.9288358348       -1.7354429051        4.0641861090
 C        -3.3501403358       -1.9603839113        3.4708442096
 O        -2.0250232576        1.5797878511        5.4205906809
 O        -0.9885021108       -2.0106918064        3.3439038733
 C        -0.6040159817       -1.5050414661        6.3652149831
 C        -2.9919844685       -0.7975348874        6.2524555095
 C        -3.3342568492       -2.9141502302        2.2592071569
 C        -2.4933220050       -2.3403115225        1.0868731010
 C        -2.0150709623       -3.2431583487       -0.0938736587
 C        -2.3478627516       -2.2278557537       -1.4781282759
 C        -3.3686073565       -2.6447439431       -2.5454469465
 C        -0.4901990802       -3.3972704113       -0.1137068432
 C        -2.8186144172       -4.5654026663       -0.1513820224
 O        -2.2952302404       -1.1830151214        1.1499432712
 O        -1.7414204720       -1.2156245649       -1.5955523902
 C        -4.5901998988       -1.7331639708       -2.5962496369
 C        -5.7625279273       -2.4411265202       -1.9502784575
 C        -7.1378349608       -1.6204658554       -1.9965958660
 C        -6.9294104067       -0.0704488200       -1.6849917416
 C        -7.0338537496        0.2997572943       -0.1872993850
 O        -5.7687224804       -3.5536511562       -1.4302996877
 O        -6.5000454944        0.7215958226       -2.4858860991
 C        -7.6981695726       -1.7426671580       -3.5314533948
 C        -8.0834735914       -2.3201558617       -1.1018741037
 C        -6.6536610511        1.7520649732        0.0971998127
 C        -5.1344662421        1.9439086523        0.4231109204
 C        -4.5696103270        3.1974043013        1.0018097601
 C        -3.1300318713        3.3967291911        0.5013305091
 C        -2.7114900461        4.3101074586       -0.6085666693
 C        -5.5002333688        4.4641112218        0.7567240525
 C        -4.4212049037        3.1946448153        2.6391363297
 O        -4.4163969622        1.0499337926        0.0709758342
 O        -2.2296762909        2.7802510080        1.1038846704
 C        -1.7852917842        3.8220127073       -1.7269935602
 C        -2.3309890618        2.6291442938       -2.5286687562
 C        -3.1393434966        3.0202427301       -3.8759582374
 C        -2.6521240420        4.3188687562       -4.6349555371
 C        -2.5795287915        4.2651085273       -6.1250830137
 O        -2.3050969522        1.5060133086       -2.1066048985
 O        -2.5350984655        5.3632865481       -4.0337071627
 C        -3.0206311707        1.7810148186       -4.8262334512
 C        -4.6354567396        3.1987192691       -3.4539285804
 H         3.4907226679       -2.8011837926       -2.7062712474
 H         4.1284555661       -4.1934581312       -3.7447043012
 H         5.1946950100       -3.2507966263       -2.6460738322
 H         7.7144996871       -2.7342486148       -2.8750700872
 H         8.2173584958       -0.9821500104       -2.9403895215
 H         6.3867928702       -0.6492926473       -6.1751404121
 H         7.1582009391       -2.0602505311       -5.4124356695
 H         7.6711359064       -0.3738033958       -4.7818276030
 H         4.3414899252        0.4839935392       -3.1743014554
 H         5.5865612157        1.0900120576       -4.4357620769
 H         4.1332748800        0.2659613671       -4.9149575185
 H         8.9459756682       -2.2666091345       -0.8163853518
 H         8.1682236233       -0.7466584573       -0.4365308907
 H         5.1573041023       -0.9441903362        3.2753242163
 H         6.1565368174        0.3618733124        3.6235136647
 H         5.0379430464       -3.1119324354        1.9986986576
 H         6.1606133441       -3.0280447388        3.3866632178
 H         6.3780244389       -4.2286749911        1.9358296007
 H         8.5329430570       -2.8149598760        2.9832038038
 H         8.8112821124       -3.5712063100        1.4222464007
 H         9.2180212894       -1.8999353129        1.6251796971
 H         4.3018664116       -0.0972720070        1.2024318911
 H         5.1008061918        1.4525100640        1.5102379832
 H         0.9449990905        2.6310242075        4.1766484015
 H        -0.7301676093        2.4248790761        3.4638514938
 H         3.6376302495        3.6274547348        2.1627716541
 H         2.8409314705        3.5940939889        3.8067383562
 H         2.0517973254        4.2449406721        2.2470604535
 H         2.7297647938        1.1853856853        0.0823840184
 H         1.8766291345        2.7887779850        0.1362939329
 H         3.6392821731        2.7047273929        0.3096804491
 H         0.0825514501       -0.1473989331        3.7025878307
 H         0.8783073238        0.3678942484        4.9868982843
 H        -4.1610803974       -2.3561449382        4.2586507339
 H        -3.6353222471       -1.0428425139        3.0308118972
 H        -0.3279331127       -0.7961163000        7.1105861436
 H         0.2112991372       -1.7281540191        5.7557740896
 H        -1.0367706646       -2.2019235699        7.0271279923
 H        -3.8384912042       -0.4089424286        5.7263834910
 H        -3.3666257832       -1.7422166892        6.5849254417
 H        -2.8167812953       -0.1544104829        7.0880376870
 H        -4.3707529933       -3.1558033563        2.0545382850
 H        -2.8834187050       -3.8758447774        2.6554361924
 H        -2.8364598202       -2.5781958474       -3.5061966517
 H        -3.7416872694       -3.7195523702       -2.5323114105
 H        -0.1741041618       -2.3762656867        0.0056218186
 H        -0.1116247151       -3.9016930542       -1.0115196251
 H        -0.0223500255       -3.9399069073        0.7109539704
 H        -2.5974020879       -4.9963900102       -1.1742410605
 H        -2.3445085121       -5.2659967566        0.4799699472
 H        -3.9185360514       -4.5883523232        0.0049395632
 H        -4.5827104376       -0.7937654518       -2.0475047217
 H        -4.7991935634       -1.4634059736       -3.6466329659
 H        -8.0401263693        0.1381296533        0.2155397173
 H        -6.3300610530       -0.2700681170        0.4715588243
 H        -8.7051501915       -1.3567899009       -3.5823211607
 H        -7.8056381157       -2.7752010910       -3.8135955093
 H        -7.0982688576       -1.4057492000       -4.3257404767
 H        -8.2633278533       -3.4134627402       -1.1536429423
 H        -7.7621052922       -2.0577801289       -0.0630563275
 H        -9.0771874747       -1.9369925348       -1.2014427144
 H        -7.1265314973        2.1551263145        0.9847351343
 H        -7.0021895916        2.3464029677       -0.7094997278
 H        -3.5542071519        4.8994475583       -0.9560602366
 H        -2.0748828465        5.0595677781       -0.1477460628
 H        -5.0534840279        5.4180700962        1.0923601537
 H        -6.4163208969        4.4200655555        1.3480074932
 H        -5.8305536799        4.5488435023       -0.2877534995
 H        -4.1569256570        4.1602096906        2.9918219365
 H        -5.3352597367        2.9642901081        3.0722717430
 H        -3.7402000128        2.4899646989        3.1200888247
 H        -1.4672954391        4.6187604200       -2.3945483353
 H        -0.8603798114        3.4626579633       -1.1461158510
 H        -3.5593611358        4.0922269190       -6.5431108846
 H        -2.3254664215        5.2302757831       -6.5706483570
 H        -1.8163449590        3.5478834976       -6.4352383161
 H        -1.9651082940        1.6216287185       -5.0315678858
 H        -3.4395665244        1.9423018429       -5.7804920384
 H        -3.5261889755        0.9005286854       -4.3631001930
 H        -4.9962576146        2.2491618014       -3.1101638597
 H        -4.8813995542        3.9574222953       -2.7126768587
 H        -5.1421358300        3.4035926148       -4.3976484063
 Na       -1.6060732718        0.8021295692       -0.0574374554
