155

 C         4.1848542250       -2.2999274134       -2.2805306862
 C         4.5302074827       -1.5246315656       -3.4584722086
 C         5.8083830900       -0.4853518618       -3.4531671709
 C         6.3715513433       -0.7157380286       -2.0317817837
 C         7.7305174191       -1.5065521178       -1.8493454078
 C         6.6814821041       -0.7163930343       -4.6800207377
 C         5.3600077131        0.9953327773       -3.4788660825
 O         4.0260324007       -1.7135004093       -4.5216484979
 O         5.9155051088       -0.1622167849       -1.0454653197
 C         7.9895908305       -1.6820455152       -0.3626240261
 C         6.9028209649       -2.6196596922        0.3205676893
 C         6.8757345446       -2.5228248206        1.9087066192
 C         6.3963868076       -1.0275021675        2.2094287102
 C         4.9358163902       -0.6485494362        2.7175988519
 O         6.2191273695       -3.3795583499       -0.3331958667
 O         7.2397598360       -0.1941940860        2.0662194473
 C         5.8964391663       -3.6519101152        2.3373139636
 C         8.2700728462       -2.7306097543        2.4633634966
 C         4.3873410131        0.6115971590        1.9223791451
 C         2.9669822528        1.1702945444        2.3037324657
 C         2.1700119672        2.0820482403        1.4029729068
 C         0.5917937753        1.6905250717        1.1738180857
 C        -0.2901616055        1.4851050334        2.3510032483
 C         2.2478662725        3.4597748713        2.2545581780
 C         2.8638319345        2.2172326953        0.0249721602
 O         2.4339267608        0.8183687461        3.3696693970
 O         0.2671727115        1.4907086917        0.0371495677
 C        -0.4636889661        0.0757303278        2.9621104424
 C        -1.5234631718        0.0855942893        4.0410124570
 C        -1.7059161259       -1.1374440957        4.9575201155
 C        -1.9575376629       -2.3104655646        4.0190031430
 C        -3.4431882656       -2.4849780020        3.5612302872
 O        -2.2996475842        1.0770679483        4.1717450527
 O        -1.2038340294       -3.1806381724        3.6009217302
 C        -0.3218236573       -1.4781078841        5.7527801753
 C        -2.8659168536       -1.0814854792        5.9508544545
 C        -3.4028926722       -3.0841009758        2.1330992037
 C        -2.6130870038       -2.1395423941        1.1931929079
 C        -1.6805089668       -2.6879344625       -0.0303742646
 C        -2.4981902742       -2.2146943722       -1.4428756795
 C        -2.8583567754       -3.2552276061       -2.4246688927
 C        -0.4349195494       -1.6699298885       -0.0555096109
 C        -1.3346069351       -4.1733369647       -0.0628631792
 O        -2.5577400412       -0.9517260497        1.4312724040
 O        -2.7220482036       -1.0458685915       -1.6915220235
 C        -4.1218372251       -2.7653206900       -3.0705547857
 C        -5.0901696232       -2.3844448032       -1.8887107557
 C        -6.6232794640       -2.0445668622       -2.0265976745
 C        -6.8481353662       -0.6013961333       -1.3574743460
 C        -6.7839362701       -0.6094604937        0.2057555497
 O        -4.5952953239       -2.6451537215       -0.7743172952
 O        -7.2225623179        0.3121896771       -2.0091010825
 C        -7.0527526107       -1.8928699611       -3.5592262264
 C        -7.3702661405       -3.1493358637       -1.3648139458
 C        -6.6448160578        0.8169981655        0.8038021939
 C        -5.2208440810        1.4438156585        0.4614752424
 C        -4.8093929796        2.9244436478        1.1610042268
 C        -3.5838259416        3.4975534347        0.4625594944
 C        -3.5649775720        4.6189234056       -0.5512984364
 C        -6.1206940080        3.8086943201        0.9247563471
 C        -4.5096155124        2.5414678891        2.6125040510
 O        -4.4137559671        0.8637809344       -0.2290647005
 O        -2.5069213749        2.9700108560        0.7205127776
 C        -2.3057502860        4.7165439943       -1.4617088366
 C        -2.1796149701        3.4148856721       -2.3406156831
 C        -2.8004647341        3.5483079062       -3.8978920366
 C        -2.0530388618        4.7277337282       -4.6851766062
 C        -2.5359556305        4.9185937637       -6.1039749495
 O        -1.6720139562        2.3748893001       -1.9648528642
 O        -1.0893070342        5.2944410195       -4.2739106852
 C        -2.4368832649        2.1734194073       -4.5079650617
 C        -4.3146668617        3.7048724479       -3.7937412142
 H         3.4315751807       -1.7436550847       -1.7898547904
 H         3.5304792962       -3.1960759662       -2.6699206957
 H         5.0641009768       -2.6061284433       -1.6647502612
 H         7.4824021842       -2.4819529891       -2.2623273360
 H         8.4742575183       -0.8136526086       -2.3620500454
 H         5.9826260602       -0.8176408134       -5.5613651975
 H         7.1923754427       -1.7193588096       -4.6602673155
 H         7.3385257558        0.1694736277       -4.9461278053
 H         4.5434221200        1.1790982499       -2.7813580442
 H         6.1330693493        1.7161148256       -3.3144005797
 H         5.0523237093        1.0493094111       -4.4942168268
 H         8.9060736558       -2.3350820581       -0.2952038344
 H         8.1732241320       -0.7854200975        0.2294806383
 H         4.2430213838       -1.4738465049        2.6324354580
 H         5.1097664113       -0.3694383776        3.7753692934
 H         4.9923498834       -3.6165800760        1.6720069091
 H         5.7031072659       -3.4868073232        3.5086711403
 H         6.4152533307       -4.5554420235        2.2318651158
 H         8.1372939736       -2.6502435240        3.5479497621
 H         8.6667217230       -3.7266363511        2.2916337541
 H         8.8486045149       -1.8494551174        2.1644778859
 H         4.3793254167        0.2796204776        0.8624785107
 H         5.1425088609        1.3808757356        1.8523620658
 H        -0.0427372117        2.0582519110        3.2625957730
 H        -1.1894183857        2.0431268997        2.1221715719
 H         3.2455375755        3.7234297264        2.4429530810
 H         1.7934522947        3.3588292411        3.2659182531
 H         1.8233272921        4.2090362219        1.5052760880
 H         2.5835988051        1.3477116740       -0.5901026268
 H         2.4763266397        3.0279487410       -0.6049888626
 H         3.9333703265        2.3714412088        0.1715638186
 H        -0.7591420033       -0.5667037850        2.1482158359
 H         0.5548779628       -0.1195521550        3.3409598944
 H        -3.8804171548       -3.1658203730        4.2982635160
 H        -3.9255598361       -1.5376702841        3.6249734036
 H        -0.0863952441       -0.6259460393        6.2855446136
 H         0.5223606246       -1.7546338545        5.1485034293
 H        -0.4805454543       -2.3317894394        6.2976587617
 H        -3.6608131979       -0.4292265406        5.5801982288
 H        -3.2804939573       -2.0543093124        6.2394752126
 H        -2.4651288439       -0.7083462755        6.8352695022
 H        -4.3408833151       -3.3083160034        1.5564937584
 H        -2.9029935101       -4.0521683670        2.3038254688
 H        -2.0641431792       -3.3969162099       -3.2189358484
 H        -3.0525224373       -4.1929706650       -1.9809167283
 H        -0.9000739830       -0.7073814271       -0.1264787968
 H         0.0855808312       -1.6720765751       -1.0235350934
 H         0.2611962358       -1.7234444870        0.7858119744
 H        -0.6411118037       -4.3753178901       -0.9852372303
 H        -0.8131831205       -4.4350504528        0.8038841936
 H        -2.2905638782       -4.7413853562       -0.1133032417
 H        -3.8545927160       -2.0054945669       -3.8192316755
 H        -4.5649332059       -3.5088188594       -3.6627599500
 H        -7.7730357105       -1.0613846471        0.4682680551
 H        -6.0600894777       -1.2601724375        0.6848432256
 H        -7.5023952925       -0.9676102830       -3.9438156952
 H        -7.6212990386       -2.7604693509       -3.8804320821
 H        -6.1665339418       -1.8614720647       -4.1223391199
 H        -7.0840274084       -4.0685214495       -1.8711312505
 H        -7.0315386072       -3.3184973387       -0.2634681050
 H        -8.4488497182       -3.0316819101       -1.3172065032
 H        -6.5352877513        0.7219505272        1.9355712400
 H        -7.4061556731        1.5356550199        0.5143000165
 H        -4.4562331886        4.4795308708       -1.1344669061
 H        -3.6449737222        5.5172979977        0.0518639327
 H        -5.8635172103        4.9147381325        1.1287715068
 H        -6.8898270899        3.4826751366        1.5859635438
 H        -6.4364174642        3.6231888139       -0.0906992533
 H        -4.1825055469        3.4192783960        3.0901308108
 H        -5.3230195768        2.2813156723        3.1711463442
 H        -3.6908102223        1.8043012018        2.6735905766
 H        -2.1937818807        5.5978861303       -2.1357351841
 H        -1.3792963912        4.6632013409       -0.7448570994
 H        -3.5630434427        4.5905718975       -6.3747134334
 H        -2.2894668009        5.9440229066       -6.3377990395
 H        -1.9242778941        4.3465645368       -6.7642855783
 H        -1.3674448078        2.1025573197       -4.4914443603
 H        -2.9444053177        1.9992537702       -5.4690860252
 H        -2.8864554440        1.4145843367       -3.8725218249
 H        -4.6941265537        2.9737967183       -3.0712232279
 H        -4.5708931032        4.6835752962       -3.6082994165
 H        -4.8032368300        3.5266152656       -4.7416097692
 Na       -2.0369836045        0.7245323760       -0.3884885605
