155

 C         4.2226396708       -0.9395337704       -4.8579966105
 C         5.4911509505       -1.3663642365       -4.1508820587
 C         6.2666588832       -0.2209954864       -3.3868576469
 C         6.1180879464       -0.3866296766       -1.7287402816
 C         6.3809468144       -1.7972981649       -1.1514804147
 C         7.7716468612       -0.3688294761       -3.6905853284
 C         5.8354199423        1.2018314166       -3.6731836099
 O         5.8481093986       -2.5380336552       -4.2718304472
 O         5.6092014982        0.4792438824       -1.0578361617
 C         6.8117660857       -1.6905205224        0.3239090505
 C         5.6321165387       -1.5445998040        1.2385139360
 C         5.8722398703       -1.5596055397        2.8181789467
 C         5.7904625267       -0.0743775467        3.3210620710
 C         4.3149880099        0.4556875945        3.5972959431
 O         4.4817016429       -1.5255702614        0.8543139506
 O         6.8244251439        0.5101925370        3.5677839643
 C         4.8816444299       -2.5953892492        3.4425609660
 C         7.2617800585       -2.1170409069        3.2176757933
 C         3.6569092646        1.5321428617        2.6681352670
 C         2.1740383458        1.5097691761        2.8746013817
 C         1.3819625149        2.6295644086        2.1274813204
 C        -0.0314179410        2.0828979150        1.6975154842
 C        -1.0329575193        1.6978020661        2.7840283500
 C         1.0729133696        3.8784227655        2.9821319267
 C         2.1757976727        3.0900224027        0.8557034458
 O         1.6253379863        0.6754279131        3.5878446653
 O        -0.3064999819        1.9338176078        0.5356311146
 C        -1.0070830778        0.1820744235        2.9882431579
 C        -1.6878643093       -0.2095440066        4.3712222338
 C        -1.3771855320       -1.8041808478        4.6845769379
 C        -1.0068646429       -2.6010338883        3.3605896526
 C        -2.1072967013       -3.3324584737        2.6905237431
 O        -2.3130193888        0.4495795098        5.1497617933
 O         0.0569099566       -2.4025567533        2.8074845080
 C        -0.0825560393       -1.8497704818        5.4197795244
 C        -2.5916285923       -2.3000296027        5.3907085443
 C        -1.8361373847       -3.7297050604        1.2221323267
 C        -1.6114072131       -2.6209407609        0.2239915600
 C        -0.8404590113       -2.5784127826       -1.1515176319
 C        -1.9937479342       -1.9655750550       -2.2227995508
 C        -2.6566964646       -2.9241228360       -3.2585640627
 C         0.3676868217       -1.6206398585       -1.1666089636
 C        -0.4469876049       -4.0559626116       -1.4622834732
 O        -1.9657976256       -1.5063395626        0.5640413893
 O        -2.2078741662       -0.7543759026       -2.3143478683
 C        -4.1211192694       -2.6608413554       -3.7236311207
 C        -4.9420248510       -2.8479067818       -2.4124428095
 C        -6.4655543482       -2.6799780041       -2.6148288621
 C        -6.8608739461       -1.3508547024       -1.6603040582
 C        -6.7623748037       -1.4584499533       -0.1329467666
 O        -4.4605969979       -3.1262513080       -1.3022491622
 O        -7.0408769968       -0.3105151512       -2.2396883353
 C        -6.8689717962       -2.2783638624       -4.0161486727
 C        -7.3198991504       -3.9517635928       -2.1329481819
 C        -6.7328778372       -0.0588461533        0.4358105170
 C        -5.4645407843        0.7966401685        0.3336011340
 C        -5.3415180546        2.0993097368        1.1425744372
 C        -4.1923064646        2.9868045962        0.3184900186
 C        -4.7105909397        3.5485976125       -1.0402006773
 C        -6.6884590157        2.7999843479        1.1940515628
 C        -4.7422060442        1.7110809565        2.5024845343
 O        -4.5786340887        0.4974862190       -0.4732210659
 O        -3.0988151633        3.1852915934        0.7249683816
 C        -3.5547290074        4.1698817856       -1.8355048969
 C        -2.5867078026        3.2117143489       -2.5799578998
 C        -1.7468663498        3.5872592113       -3.8320837618
 C        -0.9761917178        4.9527576364       -3.5605575537
 C         0.4644504954        5.0641251278       -4.1301151262
 O        -2.3991420371        2.1515177760       -2.0885124659
 O        -1.4588897699        5.8214060001       -2.7961256392
 C        -0.8170441893        2.3973653869       -4.2951679049
 C        -2.7958951476        3.7357253118       -5.0022572277
 H         4.4387034560       -0.2562272461       -5.7233912779
 H         3.7341619171       -1.7829480387       -5.3070506684
 H         3.4801676510       -0.4050473139       -4.1028460593
 H         5.3498379724       -2.3075217617       -1.1882722473
 H         7.0985610326       -2.3824962619       -1.7206784346
 H         7.8464807772       -0.2189028079       -4.7305425615
 H         8.1277248730       -1.3151438060       -3.3572210767
 H         8.4044977314        0.4082658306       -3.2934957599
 H         4.9038370309        1.4150766298       -3.1576532302
 H         6.6210511995        1.9127294656       -3.3783477688
 H         5.6831531058        1.4465509430       -4.7348754517
 H         7.3333339446       -2.6041489703        0.5587087524
 H         7.4086673142       -0.7370012762        0.4145897128
 H         3.6806423365       -0.4919068476        3.5203009341
 H         4.3315752952        0.8237607985        4.5834225159
 H         3.8693479370       -2.1681159852        3.4711239945
 H         5.0537855198       -2.8261795427        4.4278011038
 H         4.8379806849       -3.4982213086        2.8749465556
 H         7.3649092251       -2.1511948486        4.2843493624
 H         7.5673814036       -2.9881348342        2.6780267106
 H         8.0674955372       -1.5126270015        2.8982251677
 H         3.9808373584        1.3284195402        1.6181089905
 H         4.0577488759        2.4844230066        2.8708436853
 H        -1.0801797770        2.3190646154        3.6780447036
 H        -2.0472403119        1.9632723950        2.3763580978
 H         1.9585912648        4.2192832801        3.4349868151
 H         0.3798227163        3.5822288056        3.7825284525
 H         0.6246166190        4.7575995602        2.4940132145
 H         2.6288241236        2.2469977703        0.3272715286
 H         1.4555774566        3.6530900025        0.2504388736
 H         3.0531156537        3.7185472009        1.0879279178
 H        -1.7051579976       -0.2425937598        2.2481095973
 H        -0.0584159506       -0.3667896546        3.0348416581
 H        -2.2691879697       -4.3033323279        3.1336656993
 H        -2.9799263586       -2.5142261054        2.7351715476
 H        -0.0953110104       -1.4731131085        6.4564147543
 H         0.7224542651       -1.2507523849        4.9093860556
 H         0.1816913800       -2.8612702490        5.6531950561
 H        -3.4355163235       -2.5111702046        4.7257689878
 H        -2.4368569321       -3.2640114766        5.9530576155
 H        -2.8961321426       -1.5359197457        6.0713614105
 H        -2.7922726351       -4.2017549028        0.8560346294
 H        -1.1194778777       -4.5653805929        1.2559234998
 H        -1.9693422164       -2.8335205743       -4.0587667750
 H        -2.7087693992       -3.9731379844       -2.7885593503
 H         0.0337939491       -0.6026986809       -0.8860870913
 H         0.7903388448       -1.6275755444       -2.1685265670
 H         1.2042907346       -1.9128783322       -0.4996609883
 H        -0.1036121417       -4.1156249585       -2.5545692227
 H         0.3177624464       -4.3652293510       -0.7736196663
 H        -1.2942080506       -4.7538745132       -1.2998348227
 H        -4.3025705514       -1.6866825507       -4.1935010442
 H        -4.4669446161       -3.3628138047       -4.4671346223
 H        -7.6608109045       -1.9727742520        0.1428812054
 H        -5.8560961136       -2.0193892767        0.1047750913
 H        -7.8919712963       -1.9504375634       -3.8839855751
 H        -6.9716159038       -3.1694425553       -4.6583876397
 H        -6.1542522848       -1.5095555045       -4.4025598669
 H        -7.2626227371       -4.7651585156       -2.8432292107
 H        -6.8394685798       -4.2825746802       -1.1529814289
 H        -8.3973576822       -3.7603298592       -2.0879339059
 H        -6.8720272052       -0.0917815575        1.5373841839
 H        -7.4611641318        0.7238806779       -0.0544024944
 H        -5.2065994298        2.7455789980       -1.5685698880
 H        -5.4274522315        4.3164405095       -0.8458709120
 H        -6.5923453689        3.9568211507        1.1911807822
 H        -7.1916295179        2.6194723468        2.1598285043
 H        -7.4884654534        2.6685924566        0.4769327588
 H        -4.7157366303        2.6008459812        3.0956945702
 H        -5.2289373357        0.9161717575        2.9657224446
 H        -3.6926704212        1.3587239266        2.2986050835
 H        -3.9315292796        4.9698530611       -2.6099303453
 H        -2.9731358742        4.7260135893       -1.0882988578
 H         1.0917780883        5.7309450406       -3.4883597098
 H         0.9640375081        4.1740246680       -4.4215390933
 H         0.4085012757        5.7529433529       -4.9795836062
 H        -0.0987113757        2.1003095580       -3.5482417504
 H        -0.2188042290        2.6781884547       -5.2345893584
 H        -1.4351548292        1.5287449258       -4.3951775759
 H        -3.3069713225        2.8355624266       -5.3933706575
 H        -3.5898828528        4.4116052537       -4.6902559802
 H        -2.1770377578        4.0123772618       -5.8457905329
 Na       -2.0777685240        0.5508494132       -0.2563683140
