155

 C         6.4281037253       -1.0059795938       -5.3640580332
 C         6.3471821852       -1.3378732013       -3.8979092094
 C         6.6426339474       -0.2145321835       -2.9280362118
 C         5.1512389804        0.0385482896       -2.3389747291
 C         4.6123783455       -0.8678779431       -1.1931299373
 C         7.6278786639       -0.8620130509       -1.8041839099
 C         7.1460551128        1.1731267535       -3.4740296592
 O         5.9718208268       -2.3686433641       -3.3838622011
 O         4.5443162837        0.9207887011       -2.8827177600
 C         5.1942119172       -0.4009116320        0.1232110878
 C         4.5581149905       -1.0091213177        1.3920476888
 C         5.2216122799       -0.6105669933        2.7790476170
 C         5.2219449902        0.9801593158        2.8771833998
 C         4.1272862833        1.6265282108        3.7267714635
 O         3.6052451320       -1.7561976372        1.3759885379
 O         6.0540197786        1.5863812834        2.2286471080
 C         4.4207605941       -1.3529743304        3.8399907093
 C         6.7032287147       -1.1291496051        2.7607569158
 C         2.7388846032        1.6743962944        3.0043584361
 C         1.8902764325        2.8728545628        3.2109692618
 C         0.6332725862        3.0474166371        2.2424046173
 C        -0.0160265048        1.6524457184        2.0999413730
 C        -1.0705888619        1.0205329375        3.0284105572
 C        -0.2914032605        4.1257387034        2.7149054670
 C         1.1717600936        3.5348278514        0.8129615112
 O         2.0047365858        3.6187493813        4.1457600472
 O         0.4086165419        0.8927094769        1.2778873329
 C        -0.7338154988       -0.3023753673        3.5880989926
 C        -2.0131579073       -1.1364822165        3.6188945849
 C        -1.8782100236       -2.5448983621        4.5038836959
 C        -1.3143701421       -3.4672377067        3.3866636558
 C        -2.2145079616       -3.9055354702        2.1559946238
 O        -3.0065261773       -0.8969379241        3.0318713996
 O        -0.1574933179       -3.7520634879        3.2529810731
 C        -0.8988935876       -2.5415213124        5.6722651218
 C        -3.3884350106       -2.8468072610        4.8715598323
 C        -1.3727086339       -4.0500913113        0.9381128090
 C        -1.1026880487       -2.6430495878        0.2750164435
 C        -0.5214162921       -2.4803519382       -1.2979678639
 C        -1.7953550528       -1.8763794090       -2.2037579417
 C        -2.2416892520       -2.7002401494       -3.4390012935
 C         0.6080873341       -1.4649438701       -1.5610710873
 C        -0.0087412652       -3.9311303856       -1.8092140466
 O        -1.2939985095       -1.6375929384        0.9531716808
 O        -2.2931529348       -0.7993469596       -1.9827473637
 C        -3.7471866031       -2.7083770186       -3.7599338054
 C        -4.6737150443       -3.1892151787       -2.7040799164
 C        -6.1904374792       -3.0714744627       -3.0274183235
 C        -6.3825026724       -1.6952113355       -2.1264640845
 C        -6.6353884579       -1.9255150319       -0.5813921753
 O        -4.2956865529       -3.7612295904       -1.7005631948
 O        -6.2051817625       -0.6086919262       -2.6284888681
 C        -6.5203710153       -2.8014999808       -4.5233913966
 C        -6.8633417653       -4.3003039193       -2.5254570557
 C        -6.8942241232       -0.6534059543        0.1756315327
 C        -5.6618354803        0.2258943307        0.1004400813
 C        -5.6773993566        1.6545410678        0.6686262459
 C        -4.2474802984        2.1741757749        0.1997243889
 C        -3.9340029289        2.9232131817       -1.2264946502
 C        -6.8171037761        2.4528287839       -0.0708254709
 C        -5.8133653348        1.6220460039        2.1713475019
 O        -4.6319216789       -0.2044074917       -0.3304637430
 O        -3.3761869222        2.0536220277        1.0540371269
 C        -2.6953891979        3.8738070488       -1.0747602806
 C        -1.5926529281        3.3168913974       -2.0715342829
 C        -1.0081544363        4.1352775348       -3.2954716443
 C        -0.3894886281        5.4197558688       -2.5050725833
 C         1.0293043892        5.3370770522       -2.0669370033
 O        -1.1604635036        2.1736045711       -1.7230707452
 O        -1.1910440633        6.2930964229       -2.1945172615
 C         0.0927391342        3.3703942742       -3.9998812403
 C        -2.1294868380        4.6579263782       -4.2441160012
 H         7.4909925342       -0.9351803064       -5.6534740409
 H         5.9917585181       -1.6837611634       -5.9932413609
 H         5.9319510425       -0.0691688725       -5.5267169019
 H         3.5686394248       -0.9261162419       -0.9493337958
 H         4.9971307538       -1.9415026774       -1.2194850553
 H         8.5562867425       -1.0224944643       -2.2553748280
 H         7.1715510274       -1.7295425906       -1.4633323290
 H         7.7895161050       -0.1750664587       -1.0617683973
 H         6.5248449051        1.3848352787       -4.3460538286
 H         7.0947308995        2.0336976383       -2.8754283595
 H         8.1473562166        1.0300040818       -3.8072259271
 H         6.2494113216       -0.3658211778        0.2863807364
 H         4.9952867347        0.7039275035        0.3274249047
 H         4.0491374030        1.0768877279        4.6438884775
 H         4.4496005587        2.6683930564        3.8977048940
 H         3.3788862544       -0.7753669301        3.9323277738
 H         4.8748748765       -1.3680249679        4.8314584551
 H         4.2189355967       -2.3572460241        3.4956374754
 H         7.1660868206       -0.8273318543        3.7087056890
 H         6.7293813414       -2.1585021507        2.5048875370
 H         7.2058370755       -0.6596752975        1.8976725072
 H         2.1051331301        0.9407659121        3.5521577923
 H         2.8681482634        1.3516461373        1.9426780200
 H        -1.1703564958        1.7314067454        3.8431776877
 H        -1.9675186520        0.9061165897        2.3737266990
 H         0.0772717578        5.1678617505        2.6430838401
 H        -0.5635276960        3.9566221656        3.7093494387
 H        -1.1706123739        4.2161099054        2.1626342026
 H         1.7193166920        2.7118176933        0.2960811345
 H         0.2796127668        3.9084021441        0.3249808684
 H         1.8416578971        4.3487930574        1.1307390726
 H         0.0711848609       -0.8497455598        3.1076003080
 H        -0.2126895666       -0.2781561572        4.5484276575
 H        -2.9386966564       -4.7561323060        2.5406870849
 H        -2.9917516037       -3.1887894989        2.1458303063
 H        -0.7417941298       -1.5680096580        6.1859485480
 H         0.0388576228       -2.7959492640        5.2504331444
 H        -1.2740325801       -3.2008396842        6.4780999832
 H        -4.1593599194       -2.6712215290        4.1146331857
 H        -3.3701123793       -3.8968584889        4.9258731979
 H        -3.6913933362       -2.5198335459        5.9345458343
 H        -1.9287978685       -4.6027473294        0.1992107453
 H        -0.4779277247       -4.6809458488        0.9242849475
 H        -1.7602912199       -2.3230834464       -4.3398839196
 H        -1.8321028130       -3.6767951931       -3.3792386989
 H         0.4931924326       -0.5566376102       -0.9680722886
 H         0.6890013991       -1.1884718999       -2.6486904309
 H         1.5452868011       -1.9684564791       -1.2979945418
 H         0.4299634393       -3.9824553279       -2.7752872974
 H         0.8407413409       -4.2571423280       -1.0485494203
 H        -0.7157157779       -4.7911688552       -1.5826301363
 H        -4.1084673087       -1.7221752944       -4.0251510059
 H        -3.9291205733       -3.4468207627       -4.4911386089
 H        -7.4614126841       -2.6631743035       -0.4936180160
 H        -5.8272224600       -2.4206915221        0.0595804606
 H        -5.7129869126       -3.2046248002       -5.1155662281
 H        -6.4101870811       -1.7682128273       -4.9113574799
 H        -7.5039086835       -2.9551833105       -4.8689101479
 H        -6.6876405595       -5.2141887427       -3.1307847888
 H        -6.4771386737       -4.6259790610       -1.5476592867
 H        -7.9881079725       -4.2100663626       -2.4119860595
 H        -7.0202118005       -0.9293299951        1.1958914362
 H        -7.7114292107       -0.0462372874       -0.0993330503
 H        -3.6712389370        2.0729355540       -1.8969888568
 H        -4.8465075973        3.4359104023       -1.5965719696
 H        -6.5293695988        3.4858675229       -0.1941314120
 H        -7.7975000096        2.4790610090        0.5587634595
 H        -7.1828109669        2.1406107615       -1.1083644685
 H        -6.1280753356        2.5407085151        2.4901389726
 H        -6.5538138767        0.9497421689        2.3985700936
 H        -4.8983822991        1.2807682693        2.7163259489
 H        -3.0059650196        4.8414869342       -1.2196755109
 H        -2.2830171758        3.7227743864       -0.1019561900
 H         1.2941115625        5.6433723756       -1.0822459685
 H         1.6157886118        4.4075030969       -2.2529391430
 H         1.4387238689        6.0320635175       -2.8158582369
 H         0.9116807117        3.0889177725       -3.2753939418
 H         0.5541137880        3.9501914006       -4.7325740645
 H        -0.1646505668        2.3836989468       -4.4279230366
 H        -2.6360773487        3.8527249974       -4.8343265303
 H        -3.0011089032        5.1395135415       -3.7370382468
 H        -1.6267557636        5.1641381176       -5.0897830849
 Na       -1.7750680381        0.4695095043       -0.1318937921
