155

 C         7.1691486368       -1.4292953308       -5.1233758878
 C         6.4972771156       -1.4764942851       -3.6927787404
 C         6.6191460608       -0.2754389507       -2.8175285389
 C         5.2164225895        0.2302451428       -2.4308342978
 C         4.5578996050       -0.5287998108       -1.2373711963
 C         7.4943871666       -0.7135344217       -1.5253120809
 C         7.3559821973        0.8876026084       -3.5726573134
 O         5.8759634398       -2.4756597448       -3.2834735030
 O         4.7047809137        1.1723331250       -2.9764544207
 C         4.7270938463        0.2541081265        0.0186911622
 C         3.9932124239       -0.3441334184        1.1869110309
 C         4.8474382480       -0.2046248408        2.5241525687
 C         4.8812636418        1.3448092774        3.0072577011
 C         3.7044210044        1.9508399292        3.7007997716
 O         2.8664346471       -0.8419223021        1.1860863738
 O         5.9148115279        1.9786021201        2.9821442787
 C         4.2602783010       -1.0484683170        3.7280421548
 C         6.3941901636       -0.5434123164        2.3097130546
 C         2.3676909178        1.8787211031        2.9062207738
 C         1.4601135664        3.0291416455        3.4707018139
 C         0.0857197003        3.2565643084        2.7405521610
 C        -0.5297804415        1.8276058501        2.3279631007
 C        -1.0023329846        0.9789732159        3.4963805244
 C        -0.8456484249        4.0875657023        3.4693948675
 C         0.4860773646        3.9744907936        1.4241314814
 O         1.7329884111        3.7693090344        4.3943226061
 O        -0.6681291184        1.6578798938        1.1334192890
 C        -1.0561685721       -0.5115007485        3.2146672103
 C        -2.3954624419       -1.2249334826        3.9633676364
 C        -2.2940737218       -2.7366051130        4.2026088052
 C        -1.5323683951       -3.6007842244        3.0734937559
 C        -2.3145792718       -4.1427344352        1.8094997988
 O        -3.4416157693       -0.5926694422        4.1685628974
 O        -0.3420355333       -3.8200009730        3.3392367286
 C        -1.3999919851       -2.5776529390        5.4701910212
 C        -3.7057655803       -3.3253078655        4.6045654887
 C        -1.3752126613       -4.2876660791        0.6669745408
 C        -1.2180778718       -2.9021607990       -0.1108499669
 C        -0.4615909002       -2.7460465464       -1.4370625020
 C        -1.3973455711       -2.0743603530       -2.5986358767
 C        -1.8812206396       -2.8515368872       -3.7743807664
 C         0.7244344312       -1.6779882546       -1.2755458238
 C         0.2071763900       -4.0613370626       -1.9974872871
 O        -1.8116612513       -1.9154209761        0.3581742172
 O        -1.6895695159       -0.9460656745       -2.4805963321
 C        -3.4569073995       -2.6413778121       -4.0129979542
 C        -4.2216804637       -3.5811831727       -3.1534793548
 C        -5.7285022322       -3.3368772486       -3.1200467270
 C        -6.1183660955       -2.0894342418       -2.2488773917
 C        -6.0659078864       -2.2545867577       -0.7093474261
 O        -3.7617628101       -4.3854688613       -2.3805580619
 O        -6.2448108294       -1.0310860491       -2.8220487279
 C        -6.1213875725       -3.0885316205       -4.6151389366
 C        -6.4179025800       -4.5996385446       -2.7146285483
 C        -6.3708027772       -0.8795083911       -0.1034012591
 C        -5.1236819902        0.0901932878        0.0536061670
 C        -5.4512314457        1.4893572914        0.6956008245
 C        -4.1668908704        2.3800334018        0.5846686356
 C        -3.7681400311        3.0241918048       -0.8125373840
 C        -6.6363411317        2.0285347674       -0.1747130180
 C        -5.8754298696        1.3903080407        2.1530912333
 O        -3.9937565272       -0.2335227064       -0.2729729294
 O        -3.3372155506        2.3437496819        1.4563838814
 C        -2.3705026230        3.8155253881       -0.8936171329
 C        -1.3762939491        3.1515204905       -1.9162155219
 C        -0.6473943976        4.0758926954       -2.8965732360
 C        -0.1411277476        5.4157268264       -2.2475822062
 C         1.1564861680        5.9387705105       -2.8686804144
 O        -1.1400684464        1.9841398768       -1.9171896059
 O        -0.5723969009        6.0263489581       -1.2741228677
 C         0.4664225949        3.2980110052       -3.6809732011
 C        -1.6663414263        4.7910787324       -3.8963719102
 H         8.2239485599       -1.1970967496       -5.1882907359
 H         6.9918928798       -2.5013938300       -5.5731051796
 H         6.6082995803       -0.7844745304       -5.8903877834
 H         3.5606623580       -0.7560015061       -1.5086922394
 H         5.0675467735       -1.5305209693       -1.1651892605
 H         8.4041350108       -1.3829807617       -1.7394017209
 H         6.8922641950       -1.3504928829       -0.7796913094
 H         7.9366655402        0.2846404295       -1.0787864965
 H         6.7422033979        1.2215609262       -4.4272165681
 H         7.5026267105        1.7297174748       -2.8692579537
 H         8.3064432062        0.6002240667       -4.0582208870
 H         5.7919547433        0.2971033292        0.0974899450
 H         4.2180381802        1.1828658633       -0.3195783598
 H         3.6311764667        1.5953483580        4.6854443060
 H         3.9240606208        3.0724827276        3.7918221271
 H         3.1885735934       -0.8664150505        3.8232009493
 H         4.7715619098       -0.7240894983        4.6743303083
 H         4.5265619548       -2.1711669307        3.5267519803
 H         6.9099997453       -0.5131128739        3.2934439741
 H         6.4043929869       -1.6075977995        1.9909294866
 H         6.8259170888        0.1913742647        1.5960075551
 H         1.7955075386        1.0014263745        2.9098373940
 H         2.4702075936        2.1329066171        1.8563300094
 H        -0.3524534058        1.1399627830        4.3622217507
 H        -2.0276498290        1.2340639356        3.7739256263
 H        -0.3222494116        4.9668144906        3.8405723862
 H        -1.2697427140        3.7192097754        4.4478699331
 H        -1.7622940833        4.3145755893        2.8835988120
 H         1.0184900111        4.8738667069        1.6544656238
 H         1.0843488094        3.2732642829        0.8804589210
 H        -0.5058952122        4.2651284071        1.0480134573
 H        -1.1679978100       -0.6757104470        2.1115267166
 H        -0.1924797464       -1.1292262068        3.6053028758
 H        -2.8645269724       -5.0277700535        2.2025719951
 H        -3.1658371792       -3.2652725280        1.7717285331
 H        -1.5100643366       -1.6299792564        5.9587846405
 H        -0.3658975465       -2.7589311965        5.0831741214
 H        -1.4892864772       -3.4744746427        6.1436927264
 H        -4.5126012047       -3.2258498686        3.9220010827
 H        -3.4488830204       -4.3550768222        4.8149708148
 H        -4.1332147725       -2.9115488877        5.5110443924
 H        -1.8784861075       -4.9246106321       -0.0771799041
 H        -0.3946485777       -4.7547988284        0.9539774539
 H        -1.3204048918       -2.4394978031       -4.6828480933
 H        -1.5719601511       -3.8672704230       -3.7219814397
 H         0.5418233103       -0.8326859139       -0.6221418416
 H         1.0761591855       -1.3135045420       -2.2468958029
 H         1.4964999782       -2.2557457750       -0.8101018096
 H         0.6459557191       -3.9303600253       -3.0133791607
 H         1.0343977096       -4.2843018134       -1.4065403542
 H        -0.3728347556       -4.9146485738       -2.1190132920
 H        -3.7345050587       -1.5953194424       -3.7159985176
 H        -3.6199454352       -2.8328034371       -5.0783889937
 H        -6.7292734871       -3.0382987000       -0.4379147259
 H        -5.0697388755       -2.5208027444       -0.3810839850
 H        -5.7406899367       -3.8626668593       -5.2034166372
 H        -5.7626830667       -2.0812198967       -4.9682857355
 H        -7.1218660065       -3.2575680986       -4.9520536767
 H        -6.5695757386       -5.1320015022       -3.5707018333
 H        -5.7622163141       -5.2156471400       -2.0701165712
 H        -7.3627506980       -4.5114425656       -2.2242255216
 H        -7.0918972556       -0.9040587528        0.8089919038
 H        -6.9250200370       -0.2399131681       -0.8320734397
 H        -3.7347299913        2.2357795692       -1.5577152617
 H        -4.6097809009        3.6714653017       -0.9952489222
 H        -6.8653246596        2.9636740106        0.3808504146
 H        -7.4421466834        1.3618767921        0.0498916723
 H        -6.4289157947        2.1040434848       -1.2200607143
 H        -5.9836797198        2.4458019981        2.6297462195
 H        -6.8623832714        0.8309412143        2.1546033890
 H        -5.1548921792        0.9002475269        2.7633075200
 H        -2.6526164402        4.8240166254       -1.1091045771
 H        -1.8595926789        3.8610985169        0.1581998556
 H         1.0336791954        7.0032882326       -3.1463604343
 H         1.9584870932        5.8534123164       -2.1683365494
 H         1.4584487706        5.4426906901       -3.8036196892
 H         1.4636948464        3.4085948328       -3.2952887285
 H         0.4769902280        3.6957015152       -4.6818108359
 H         0.2581514762        2.2425848181       -3.8666588960
 H        -1.9655641310        4.2021302266       -4.6900260211
 H        -2.5500077990        5.2580214255       -3.4648913422
 H        -1.1146856781        5.6800126198       -4.2294910376
 Na       -1.6869237135        0.3768910261       -0.4040932099
