155

 C         7.0588347233       -2.1325271698       -4.6644615032
 C         6.5023428036       -1.5945116710       -3.3855478088
 C         6.9128107325       -0.1512386613       -2.9647578641
 C         5.6152954673        0.4521921583       -2.3041156133
 C         5.0725760155       -0.1762545795       -0.9937524021
 C         8.1128488762       -0.3721416393       -2.0035695138
 C         7.3724947248        0.7595820454       -4.0189681268
 O         5.6360431834       -2.1608300971       -2.7920351809
 O         5.0417293903        1.3922696921       -2.8365459739
 C         4.6215621150        0.9195709869       -0.0521841119
 C         3.6623725827        0.3589680677        1.0174959587
 C         4.2396863046        0.1325800074        2.4893156866
 C         4.5761424077        1.5628865525        3.1243820468
 C         3.5439209071        2.1285504918        4.0568915782
 O         2.4916171430        0.2236503267        0.7335421088
 O         5.5735771719        2.1363924350        2.7388247558
 C         3.2318936992       -0.6838544380        3.3422450114
 C         5.6906009846       -0.5478906017        2.5228938873
 C         2.3011797984        2.4488029080        3.2088687161
 C         1.1033038705        2.7075938493        4.1443299095
 C        -0.1923584265        3.3435105899        3.4250330158
 C        -0.8615233006        2.0844691017        2.7576484492
 C        -1.6755154743        1.1544713565        3.5991054796
 C        -1.0754204597        4.0227894588        4.4509090094
 C         0.1735583382        4.3937170323        2.2808533925
 O         0.9510096036        2.2874403972        5.2548249703
 O        -0.6945044790        1.8422053467        1.5393293514
 C        -1.4675902183       -0.3669546934        3.5180693407
 C        -2.6550002591       -1.2003156825        3.9125571978
 C        -2.3736071870       -2.8259457234        4.0548414402
 C        -1.7117269526       -3.2151530520        2.6105222783
 C        -2.4654835229       -4.1607775762        1.5660309756
 O        -3.7945263579       -0.8449061171        4.0974291345
 O        -0.5933234152       -2.8807039581        2.3657326939
 C        -1.2283737708       -2.9820767483        5.1517432685
 C        -3.7329488324       -3.4224621637        4.4080518739
 C        -1.4804822780       -4.4350499308        0.3742378697
 C        -1.2303326841       -3.1598313521       -0.3628536880
 C        -0.1887139460       -3.0272758860       -1.3670396637
 C        -1.0315917634       -2.4178038603       -2.5929184143
 C        -1.1862659330       -3.2549606339       -3.9615553859
 C         0.9705733814       -1.9244567301       -1.0958921571
 C         0.4824977058       -4.3409523639       -1.6724385577
 O        -1.8335438672       -2.1266408141       -0.0618141015
 O        -1.6539095592       -1.3907732514       -2.5218849066
 C        -2.7338347614       -3.3234161679       -4.2257851602
 C        -3.6558949831       -3.6611806975       -3.1050629742
 C        -5.2838354185       -3.4988902033       -3.2669678745
 C        -5.6925715439       -2.2846165018       -2.4210949544
 C        -5.7144947702       -2.4061093691       -0.8617699990
 O        -3.1600373923       -4.1558083944       -2.1119765138
 O        -6.0184781048       -1.2751198533       -2.9947600635
 C        -5.5298868320       -3.2644819370       -4.7691167712
 C        -5.9633016599       -4.7845827290       -2.7723571004
 C        -6.1704783027       -1.0064959591       -0.3098316192
 C        -5.1085199116        0.0312839736       -0.3565597856
 C        -5.2805842899        1.4885768098        0.4591761384
 C        -4.0683329130        2.5272431235        0.2002131639
 C        -3.8684258395        2.9406351257       -1.2301335388
 C        -6.6493681184        2.2076306134        0.1987772881
 C        -5.2126565931        1.0020630657        1.9439712134
 O        -3.9919798240       -0.3735953861       -0.7052825236
 O        -3.3372209161        2.8447911018        1.1276857855
 C        -2.7086949903        3.9932990337       -1.3479744936
 C        -1.5749466262        3.3420939113       -2.0725411256
 C        -0.6905349159        4.2964954597       -3.0504437069
 C         0.0855875136        5.1966148764       -1.9641095861
 C         0.5699545211        6.6008437714       -2.4074878981
 O        -1.2760661354        2.1614259629       -1.8962397725
 O         0.1433653777        4.8181288388       -0.8143641205
 C         0.3511472761        3.3393509750       -3.6830822202
 C        -1.6223660001        4.7928213154       -4.1532145854
 H         8.0555809381       -1.6849757767       -4.9995755581
 H         7.0538064654       -3.1484598426       -4.7857182242
 H         6.4147990325       -1.6240995310       -5.3282803512
 H         4.1890801118       -0.7018701994       -1.2472813336
 H         5.8113955470       -0.7509919697       -0.4313112064
 H         8.6860008343       -1.1451659243       -2.3736656836
 H         7.8161448259       -0.6067434188       -1.0506567727
 H         8.6907853642        0.4363397515       -1.8504832213
 H         6.5349953339        1.0541446912       -4.6017884410
 H         7.7944169340        1.6859559311       -3.6208124402
 H         8.1491577346        0.3445877404       -4.6414631819
 H         5.4693768038        1.4234858111        0.3818455228
 H         4.1651788171        1.6512672608       -0.7408196436
 H         3.3150541278        1.4701129219        4.9060428102
 H         3.9912318185        3.0424924034        4.5789243087
 H         2.7976925669       -0.1509104352        4.2513967470
 H         3.7275563655       -1.5856778276        3.6879762353
 H         2.4087830696       -0.9597417382        2.7959569677
 H         6.0981535364       -0.5265123483        3.5313425012
 H         5.4787302489       -1.5799448296        2.1740058671
 H         6.3675015321       -0.0208130297        1.8687257067
 H         2.0198430897        1.6528373965        2.4936838523
 H         2.4306938446        3.3549555373        2.5484968139
 H        -1.7481613635        1.4733261481        4.6417844112
 H        -2.7091691528        1.3834311080        3.3766792413
 H        -0.6023158262        4.9381595121        4.6835260374
 H        -1.3456396537        3.3347072537        5.2406368243
 H        -1.9600731296        4.3683933297        3.8690203253
 H        -0.7301168587        4.4290838047        1.7299227120
 H         0.2719608281        5.4106245226        2.6840323370
 H         1.0689970913        4.1155007694        1.7755131300
 H        -1.0863627738       -0.6615235667        2.5516211290
 H        -0.8792020777       -0.5697359046        4.4291394369
 H        -2.4723328360       -5.2943373529        1.9734386523
 H        -3.4910707588       -3.8748702214        1.1788673269
 H        -1.1821195237       -2.1842386563        5.8733547248
 H        -0.2901225915       -2.9288509956        4.5815718889
 H        -1.4537546482       -3.8483839668        5.6548975596
 H        -4.4545341226       -3.1618179359        3.6341066455
 H        -3.8020181244       -4.5732314351        4.4655126192
 H        -3.8247957084       -3.0563211437        5.3812920835
 H        -1.9055696334       -5.1557353595       -0.3356988202
 H        -0.6138872013       -4.8899508774        0.8666328967
 H        -0.7476734193       -2.6399010013       -4.7971636302
 H        -0.8222938907       -4.2573969717       -3.9143184541
 H         0.5233444359       -1.0860253995       -0.5472835706
 H         1.3852717622       -1.5422537011       -2.0085434505
 H         1.7250303697       -2.3485066376       -0.4310124321
 H         1.2260103606       -3.9822683567       -2.4293813246
 H         1.0299572298       -4.7488662941       -0.8122427972
 H        -0.1978413446       -5.1790645444       -1.9908261419
 H        -2.9879706706       -2.4093635467       -4.7919935225
 H        -2.8362827546       -4.0245423536       -5.1320720419
 H        -6.4815118111       -3.1692962172       -0.7207060773
 H        -4.8161033552       -2.6270451953       -0.3214169209
 H        -5.1561767513       -4.1774449633       -5.2865266895
 H        -5.0250746394       -2.5001289605       -5.2845934721
 H        -6.5980539653       -2.9693076418       -4.8192092167
 H        -5.4998620217       -5.6764149380       -3.3508970701
 H        -5.7485227470       -4.9106787996       -1.6953090476
 H        -7.0656159156       -4.7982762203       -2.9442420785
 H        -6.4475993022       -1.2050511024        0.7660181137
 H        -7.0250802616       -0.5127698631       -0.8552040861
 H        -3.6266124565        2.0578070533       -1.8367212151
 H        -4.8383375249        3.2655393624       -1.6231126972
 H        -6.4793990641        3.1614936876        0.6991907975
 H        -7.3068019996        1.6268553828        0.7404293019
 H        -6.9168502302        2.3021782610       -0.8468931311
 H        -5.2059931591        1.8128521026        2.5825024814
 H        -6.0859284170        0.4407762862        2.2445534608
 H        -4.3411771176        0.3246279551        2.0858421515
 H        -3.0149541217        4.9283304450       -1.8478429379
 H        -2.3520216391        4.2463728434       -0.3372630187
 H         1.4252274729        7.0449037364       -1.8441017712
 H         0.6720936915        6.7813642743       -3.4429685923
 H        -0.3196137581        7.1690521768       -2.0894298072
 H         1.1571637224        3.1174148238       -3.0456610812
 H         0.7482533288        3.7085216189       -4.6944005748
 H        -0.1961217417        2.4140628052       -3.7841596826
 H        -1.7321195959        4.0861677950       -4.9923477945
 H        -2.5874249195        5.0912385493       -3.7023048549
 H        -1.1386576258        5.6537158398       -4.6738548035
 Na       -1.5760450666        0.1591924813       -0.3113356991
