155

 C         7.2050265930       -2.4794551373       -4.3083396645
 C         6.4490044532       -1.6100569748       -3.2542680278
 C         6.8940583747       -0.1505797943       -3.1441090128
 C         5.9562902187        0.6822028175       -2.1507289588
 C         5.3102544563        0.0107027302       -0.9069558555
 C         8.2871502415       -0.2000030146       -2.4688495017
 C         6.9095814498        0.5642893919       -4.5057006070
 O         5.6723333469       -2.1458256694       -2.4844924337
 O         5.7995805160        1.8581750365       -2.4327393659
 C         4.8304653248        1.1496481435        0.0886041893
 C         3.6757383512        0.6925676231        0.9226997386
 C         3.8579481823        0.2954954724        2.3923938016
 C         4.2368293455        1.6021004158        3.2106932838
 C         3.2462738913        2.3486777192        4.1675896842
 O         2.5867221881        0.4567675282        0.3830171627
 O         5.3869213196        2.0087373865        3.1022628671
 C         2.6801594299       -0.6338140823        2.7187361505
 C         5.2712727587       -0.4894035240        2.5376134181
 C         2.0445858209        2.9143910979        3.3898286062
 C         0.7121024936        2.5178934555        3.8826001049
 C        -0.6034291689        3.0732412331        3.3229908653
 C        -1.3176958570        1.7549693491        2.7537110431
 C        -2.0013762423        0.8371629661        3.7728442936
 C        -1.4274735265        3.6131488256        4.5487494142
 C        -0.4307208361        4.1657422000        2.2420878783
 O         0.5723835526        1.7498503936        4.7946075088
 O        -1.3223501028        1.5777218230        1.5790023446
 C        -1.6326893445       -0.6615801743        3.4501294882
 C        -2.7700683203       -1.6019173813        3.8382941662
 C        -2.2627385783       -3.0637171950        4.2872399154
 C        -1.4272314122       -3.5237411632        3.0478921332
 C        -2.0023763725       -4.3267959604        1.9926333324
 O        -3.9525673246       -1.2613301395        3.7115388624
 O        -0.2413450804       -3.2177938599        3.1563181188
 C        -1.3821492538       -3.0894369326        5.5354431212
 C        -3.4422829398       -4.0740549595        4.4341776781
 C        -1.2544673774       -4.1968776428        0.6184625380
 C        -1.1141033154       -2.7906580475        0.0785723204
 C        -0.0945828739       -2.7579617013       -1.1655559063
 C        -0.6703784174       -1.9193088042       -2.4793049287
 C        -0.9961512259       -2.6673392122       -3.7844921379
 C         1.0727614982       -1.8576818249       -0.5486007199
 C         0.6639241295       -4.1675715285       -1.5453920573
 O        -1.7480418229       -1.7938154864        0.4203520907
 O        -0.9509589680       -0.7345112897       -2.2765455830
 C        -2.5547338249       -2.6242906282       -4.0504943258
 C        -3.4444560621       -3.4104747440       -3.0937650373
 C        -5.0040361656       -3.4794048567       -3.5258381360
 C        -5.5800100755       -2.2422856635       -2.8261688270
 C        -5.6728827138       -2.3388799139       -1.3256113770
 O        -3.0407874437       -3.8458132693       -2.0383918176
 O        -5.7259282837       -1.1669741497       -3.3572096671
 C        -5.0706270065       -3.4993454185       -5.0740056845
 C        -5.6472565618       -4.7407232005       -2.9717826661
 C        -6.1928068102       -1.0667920297       -0.5987650720
 C        -5.1129839340       -0.0392852118       -0.3763445978
 C        -5.4278009266        1.3451139272        0.2888919801
 C        -4.3423026524        2.4745815277        0.0454751202
 C        -3.7985148201        2.6688177241       -1.3708101273
 C        -6.6787640263        2.0533089130       -0.2691981191
 C        -5.4385738818        0.9488882529        1.8571946345
 O        -3.9302547114       -0.3478993415       -0.6956438149
 O        -3.9034233431        3.0758657768        1.0256807713
 C        -2.6557070573        3.6600570606       -1.3124764144
 C        -1.4576476801        3.1331398406       -2.2442516644
 C        -0.5317455521        4.0713091936       -3.0553191376
 C        -0.0790523750        5.1387101763       -1.9696224491
 C         0.0990789383        6.5700648977       -2.3675463230
 O        -1.2570381199        1.9686525853       -2.2788903493
 O         0.1123178731        4.7784825021       -0.8569968460
 C         0.7637253091        3.4651820572       -3.6877482889
 C        -1.3442684099        4.7892339745       -4.1555037848
 H         8.2967086113       -2.3079952416       -4.1168729118
 H         7.1167320967       -3.5526029246       -4.0490469005
 H         6.9728080148       -2.3884955232       -5.4252286076
 H         4.4280765271       -0.5121347751       -1.2893238306
 H         5.8675440479       -0.6878289551       -0.2966913111
 H         9.0131356881       -0.8152221052       -2.9285003484
 H         8.1920191344       -0.5684974267       -1.4652897844
 H         8.7006220587        0.7648706542       -2.5450858526
 H         5.9031135973        0.8360457973       -4.8054285465
 H         7.4967976979        1.4354324727       -4.3989004303
 H         7.2860129460       -0.0459444947       -5.3005322546
 H         5.6050801497        1.5096391899        0.7610892247
 H         4.4676722897        2.0734679767       -0.3792753729
 H         2.8805324664        1.6153720284        4.8666001444
 H         3.7335567615        3.2149365388        4.6421614627
 H         2.6612074939       -0.9811504747        3.7650058485
 H         2.7989051859       -1.6184080696        2.0320957351
 H         1.7144900919       -0.2373089494        2.5236286755
 H         5.5264445265       -0.3902283972        3.5798528788
 H         5.1613827589       -1.5099661503        2.2248939566
 H         5.9379162658       -0.1496173590        1.7648441003
 H         2.1103760547        2.6726169061        2.3423370644
 H         2.0412633084        3.9675289238        3.5574301140
 H        -1.6163960146        1.1262856785        4.7303703318
 H        -3.1052980616        0.8883536535        3.8593603864
 H        -0.9551736086        4.5317175660        4.8594004032
 H        -1.1993005023        2.9343396883        5.4200864559
 H        -2.4820509250        3.5262834437        4.2062718482
 H        -1.1032163762        5.0064385561        2.3058475487
 H         0.5859609877        4.4974247351        2.1988498615
 H        -0.7823442104        3.7134674427        1.3000036099
 H        -1.6145543450       -0.6608150644        2.3285964594
 H        -0.6290537693       -0.9158146351        3.8135476075
 H        -2.0074221823       -5.3159477494        2.1344713347
 H        -3.0026182838       -4.1774821009        1.7226358616
 H        -1.7108265343       -3.8974297335        6.0710182996
 H        -1.4178009957       -2.1978617190        6.1430874146
 H        -0.3271669414       -3.1238761437        5.2877171259
 H        -4.1843846722       -3.8919129741        3.6080035815
 H        -2.9505816008       -5.0719625943        4.4758890349
 H        -3.9936628803       -3.9450235722        5.3814551978
 H        -1.6410186690       -4.8383084605       -0.2040149025
 H        -0.1952110479       -4.5014130004        0.8525628370
 H        -0.3971825466       -2.2043491289       -4.6027348636
 H        -0.8058116387       -3.7648770036       -3.6422602682
 H         0.9747675685       -0.7753257597       -0.5576584180
 H         1.8938095482       -2.0574383004       -1.2819934600
 H         1.4243447603       -2.2299743755        0.4066602343
 H         1.5880523640       -3.9115635173       -2.1642423004
 H         1.0324909678       -4.6228045249       -0.6923958798
 H         0.0544757068       -4.7902952876       -2.1253324262
 H        -3.0460530933       -1.5839843602       -4.0399842684
 H        -2.6511249770       -2.7509737796       -5.0931459541
 H        -6.2467898951       -3.2013423921       -1.1749060918
 H        -4.6646916426       -2.5590374770       -0.8771809004
 H        -4.2904533603       -4.1645191994       -5.3212487025
 H        -4.9464693236       -2.4550453025       -5.4614277036
 H        -5.9674826598       -4.0076107229       -5.3774637127
 H        -5.2671201523       -5.5584047907       -3.5274958704
 H        -5.3768219143       -4.9935107693       -1.8980083522
 H        -6.7081081313       -4.6424732710       -3.2769969089
 H        -6.5892199410       -1.5014480966        0.3915349409
 H        -6.9505338933       -0.5481190172       -1.2409144394
 H        -3.3294402316        1.7687061383       -1.7118164669
 H        -4.4626544665        2.8365107790       -2.1889604841
 H        -6.5847777078        3.0562889411        0.1525950377
 H        -7.5274931226        1.5856953067        0.0562972137
 H        -6.5226192252        2.1075908144       -1.2895316918
 H        -5.7207103602        1.8158376218        2.5291779972
 H        -6.1272274937        0.0805984793        2.0883805492
 H        -4.4561268045        0.7653650349        2.1704409160
 H        -2.9579648734        4.6894399238       -1.5885420342
 H        -2.2696087893        3.6211125584       -0.2227562341
 H         0.3041796132        6.5953530077       -3.4414194987
 H        -0.5132608455        7.3804676339       -1.9883601659
 H         1.0570797148        6.8373470641       -1.8861516455
 H         0.9319038357        2.4931384299       -3.2018455533
 H         1.5973043900        4.1332430042       -3.5398970439
 H         0.6476225368        3.3815917799       -4.7843115010
 H        -1.5695576982        3.9852111411       -4.8212840150
 H        -2.2867677023        5.2138602945       -3.7102574187
 H        -0.8196683153        5.6223100964       -4.6592901659
 Na       -1.5895138603        0.4010859330       -0.4017078096
