155

 C         6.8906367131       -2.6795964260       -2.8469490356
 C         6.1178848669       -1.4334265998       -2.8614923519
 C         6.9157223320       -0.0577789871       -2.8300952861
 C         6.0023714461        0.9503589692       -2.0777484278
 C         5.3472802608        0.3422939577       -0.7577936125
 C         8.2810680498        0.0539200518       -2.1194948700
 C         6.9883207990        0.4371382448       -4.2711905481
 O         4.9100625175       -1.3789173395       -2.9281242383
 O         5.8117186870        2.0873764192       -2.4497281988
 C         5.2778337880        1.5177444670        0.2259968037
 C         4.0140377785        1.2659638743        1.0801525738
 C         4.2141417606        0.6350956585        2.5212567041
 C         3.9767792328        1.8618567112        3.5217140787
 C         2.6384662562        1.9186912639        4.3882943769
 O         2.8418554402        1.3506778592        0.6951830714
 O         4.8071530112        2.7338850225        3.5035733086
 C         3.2018463658       -0.5358368380        2.7623189810
 C         5.5948781435       -0.0263765249        2.8136844154
 C         1.4761310851        2.4084482233        3.5140402161
 C         0.1011233558        2.0979094344        4.1942137360
 C        -1.3285814398        2.5860265825        3.5252010857
 C        -1.6459176715        1.5395136903        2.4104060384
 C        -2.5732903906        0.4078779427        2.7662207544
 C        -2.4660364442        2.4673323504        4.6976407242
 C        -1.3486523554        4.0025962820        2.9644655801
 O         0.0869744848        1.5101424720        5.2838994190
 O        -1.1500601122        1.7107717877        1.3243324452
 C        -1.8780818532       -0.6515336686        3.5807892968
 C        -2.7464322517       -1.9416034576        3.7485476101
 C        -1.9368165146       -3.2388961731        4.2585288150
 C        -1.0342810008       -3.8016374354        3.0833446013
 C        -1.8818715239       -4.2701723538        1.8128130305
 O        -3.8910355598       -1.9260920916        3.3804977142
 O         0.1419537075       -3.8104509076        3.0745603332
 C        -1.0983812782       -2.9982335310        5.5142191682
 C        -3.0681213019       -4.2351927094        4.5696235643
 C        -0.9413331350       -4.1736376856        0.6572170027
 C        -0.6430371412       -2.7417799881        0.2125972081
 C         0.4185040283       -2.4537332765       -0.9355201260
 C        -0.4138191034       -2.1420367583       -2.1869371026
 C        -0.2761685210       -2.9454424163       -3.5067044325
 C         1.3721557155       -1.3258969848       -0.4407789623
 C         1.2650770641       -3.6735329823       -1.2363986998
 O        -1.2620234757       -1.8089690446        0.6169157121
 O        -1.1466780629       -1.1619030875       -2.1565291732
 C        -1.6413881872       -2.7228254240       -4.1965466028
 C        -2.7224527508       -3.6211581547       -3.4655595160
 C        -4.2253529474       -3.6452848076       -3.9970300424
 C        -4.8093699874       -2.3185286048       -3.3747554327
 C        -5.6042524997       -2.4966879403       -1.9767205813
 O        -2.4984028383       -4.2493048839       -2.4415136893
 O        -4.5651259845       -1.2486472448       -3.8191838144
 C        -4.5382842197       -3.6130642109       -5.5177296638
 C        -5.0830378844       -4.8488596265       -3.5290727947
 C        -6.2024513736       -1.1029706790       -1.6158848634
 C        -5.2117603832       -0.1702471895       -0.9712072303
 C        -5.8221678161        1.3391342926       -0.5621326464
 C        -4.6288083087        2.2691252138       -0.2974941162
 C        -4.3717246754        3.4779630657       -1.2590681158
 C        -6.7056500422        1.8873535850       -1.7250149306
 C        -6.6365723084        1.2532645245        0.8309235298
 O        -4.0703885503       -0.5065365361       -0.7007949169
 O        -3.9733766071        2.0394207166        0.7225076498
 C        -2.9634342986        4.0674784773       -1.0718670931
 C        -1.8784390629        3.3365268820       -1.7904220242
 C        -0.6750836905        4.1636446128       -2.3891403373
 C        -0.2744683254        5.7154140679       -1.9825380174
 C         1.1410824104        6.1803433499       -2.1621237208
 O        -2.0510065188        2.1366331582       -1.9704507070
 O        -1.0599814974        6.3756281459       -1.3145615055
 C         0.6495871595        3.4195871905       -2.1711969342
 C        -1.2131623347        4.3209175835       -3.8272797246
 H         7.1434869142       -3.0770428116       -3.9323296316
 H         7.7073858709       -2.5731217487       -2.1943635708
 H         6.2762669061       -3.4963819313       -2.4403042379
 H         4.2787153216        0.2644247772       -1.0812400767
 H         5.6972177750       -0.5811953708       -0.3882363813
 H         8.9212782654       -0.6993937652       -2.5118800138
 H         8.1199522309       -0.1997172112       -1.1076034142
 H         8.6668736650        1.0165518751       -2.2458380557
 H         6.1361444021       -0.0462550599       -4.7970575590
 H         6.9339225208        1.5203217368       -4.2648556497
 H         7.8954937801        0.0482869409       -4.7697026059
 H         6.1969990785        1.4424351834        0.7822235106
 H         5.1327771686        2.5133495169       -0.1614219892
 H         2.3808833881        0.8942130399        4.8272234856
 H         2.7969529337        2.5340412974        5.2393352712
 H         3.4179187976       -1.0862822837        3.7767119388
 H         3.1115832912       -1.2441869155        2.0412920152
 H         2.2131839565       -0.0858880180        2.9674227173
 H         5.6660373578       -0.1546389782        3.8922468198
 H         5.6213961796       -1.0119499237        2.3762614395
 H         6.4718730380        0.5406841451        2.4433384857
 H         1.4671553096        2.1522159469        2.4451634525
 H         1.5753300970        3.5130441140        3.3857294211
 H        -3.5338305387        0.7792418555        3.2121905207
 H        -2.9898047916       -0.0668915686        1.8926631302
 H        -2.2156554886        2.9752476667        5.5540870130
 H        -2.5055558069        1.4576776804        5.0315912919
 H        -3.3588417505        2.7882388409        4.2035749293
 H        -1.7989540588        4.0688719008        1.9677314584
 H        -1.7612356785        4.7572879520        3.5989421516
 H        -0.3406327170        4.4589476497        2.8285093321
 H        -0.9128992610       -0.7882364799        3.0563630958
 H        -1.5946330277       -0.2242666620        4.5321590497
 H        -2.3009848175       -5.2162425299        2.1318550841
 H        -2.7518294410       -3.5059192157        1.8264618394
 H        -0.1347300245       -2.7441451159        5.1741215910
 H        -1.2058775883       -3.7857309713        6.2335773637
 H        -1.4279453968       -2.1496675256        6.1808398648
 H        -3.8500127873       -4.1894665704        3.7818105849
 H        -2.7292009025       -5.2964735285        4.7137701842
 H        -3.4537215709       -3.9779995646        5.5297051326
 H        -1.3728069870       -4.7228072684       -0.2279928882
 H         0.0117914913       -4.6622301300        0.9238608738
 H         0.5567557484       -2.3963832584       -4.0275383765
 H        -0.0341492553       -4.0683921204       -3.5119141340
 H         0.8249007778       -0.4437031747       -0.1612501892
 H         1.9564635176       -1.1241694974       -1.3513646257
 H         1.9903008776       -1.5706031804        0.3926787782
 H         2.1064634481       -3.5316542455       -2.0413066013
 H         1.7949283120       -3.9648525414       -0.3549792130
 H         0.6671679922       -4.4465127401       -1.6651802272
 H        -1.9059661447       -1.6815273257       -4.0624160698
 H        -1.5071643353       -3.1060382450       -5.2522262225
 H        -6.4327243103       -3.2052590231       -2.0194909228
 H        -4.8562261971       -2.9093664237       -1.3273111542
 H        -4.0551798415       -4.4258389940       -6.0358113055
 H        -3.9921899807       -2.6578660203       -5.7847230734
 H        -5.6262311146       -3.5099420908       -5.5802960283
 H        -4.8232788855       -5.8458282258       -3.8370590476
 H        -4.9051794265       -4.9920915270       -2.4319675588
 H        -6.1402064949       -4.6098262611       -3.8165768051
 H        -7.1995566011       -1.1396019438       -1.0010527351
 H        -6.5139971998       -0.8066254159       -2.6305756926
 H        -4.5211127373        3.1220873669       -2.2504942469
 H        -5.0946350072        4.2500501572       -1.0539580007
 H        -7.3714217391        2.7420999093       -1.4353063578
 H        -7.3767486259        1.1992528270       -2.1139095735
 H        -6.1241078345        2.2794634066       -2.5330091871
 H        -6.5785992800        2.1303189141        1.4080053005
 H        -7.7153275245        1.1753384328        0.6850395382
 H        -6.2570660084        0.4403023555        1.4027383764
 H        -2.7750981402        5.1872484374       -1.3133063225
 H        -2.8333124938        4.1266406511        0.0178808957
 H         1.7953693636        5.9868797741       -1.3303427267
 H         1.7159002872        5.7884437808       -2.9607018774
 H         1.0138701480        7.2447947014       -2.3181885719
 H         1.0700123032        3.7521794216       -1.2056831071
 H         1.3427917278        3.5656756636       -2.9418912096
 H         0.5006529141        2.3365171561       -2.0861806908
 H        -1.4107526229        3.4134483556       -4.3983959196
 H        -2.1365976302        4.9104173765       -3.7751188726
 H        -0.6238506333        4.9736168063       -4.4507897541
 Na       -1.9035915067        0.2445165029       -0.4105105891
