155

 C         6.8925148862       -2.6642213414       -2.7205450521
 C         6.0872208790       -1.4411444084       -2.8677811640
 C         6.7703603463       -0.0395041497       -2.7499611067
 C         5.8959329387        1.0189099168       -2.0569372255
 C         5.1976316073        0.6046811102       -0.7377548181
 C         8.1201565859       -0.1419246131       -1.9648039417
 C         7.0923432184        0.4659439414       -4.2266710641
 O         4.9138643703       -1.4838924079       -3.1904177714
 O         5.8729374733        2.1175756609       -2.4893431551
 C         4.6433926285        1.6879524793        0.1716018022
 C         3.7486824007        1.1458361314        1.3852974254
 C         4.3055254770        0.6696638716        2.8075742741
 C         3.7775510114        1.9599287662        3.7885047460
 C         2.4490510424        1.6512719396        4.4319930161
 O         2.5513961395        1.0984389334        1.1339965589
 O         4.3156204307        3.0295863978        3.7656480855
 C         3.7132170802       -0.7296241727        3.2688304932
 C         5.8236537419        0.7575111735        2.9202521418
 C         1.2969382328        2.3002093278        3.6548242973
 C        -0.0412292127        2.1080301459        4.3606952071
 C        -1.3227552771        2.7016906219        3.8375651345
 C        -1.6727442934        1.6710212580        2.5981143949
 C        -2.6574196534        0.5350864650        2.9423734860
 C        -2.4593709399        2.7530777617        4.8688687652
 C        -1.1389500156        4.1109961649        3.1914393355
 O        -0.1113302128        1.2345591740        5.2142269587
 O        -1.0239916025        1.7757198535        1.5929446719
 C        -1.8910970646       -0.7591783845        3.4738663109
 C        -2.7127205341       -2.0014785595        3.7626516940
 C        -1.9118710542       -3.3235941698        4.1398280335
 C        -1.0666011159       -3.6695749635        2.8701534650
 C        -1.6130005235       -4.6697087247        1.7920182080
 O        -3.9291958647       -1.9932352445        3.6162950721
 O         0.0039628040       -3.1811100322        2.7194443048
 C        -0.9685943777       -3.1385093906        5.3029473163
 C        -2.8378610613       -4.4347906972        4.6390943424
 C        -0.8340698856       -4.1490069752        0.5222994811
 C        -0.7832748693       -2.7223417721        0.2067955671
 C         0.4927556064       -2.2567690821       -0.9551961679
 C        -0.4061340269       -1.9738884874       -2.1663387775
 C        -0.2779472669       -2.8477975890       -3.3571637146
 C         1.0705898798       -0.9848203369       -0.2516429028
 C         1.5612622832       -3.2634313855       -1.2405162435
 O        -1.5270326929       -1.9530021747        0.6948597447
 O        -1.1499628511       -1.0255636181       -2.1135433209
 C        -1.6277760896       -2.8690128484       -4.1226433402
 C        -2.5844096613       -3.9818252515       -3.7425947237
 C        -4.1262185089       -3.8758207124       -4.1402068300
 C        -4.8402976995       -2.4690830533       -3.4895568471
 C        -5.5750335888       -2.6926433662       -2.0764725790
 O        -2.2633446711       -4.9064712117       -2.9991973327
 O        -4.8163383496       -1.4323319247       -4.1092852016
 C        -4.1381391701       -3.7986178236       -5.7854812890
 C        -4.9712680759       -5.1061967852       -3.7152564251
 C        -6.1501213267       -1.3656522077       -1.5788707992
 C        -5.2032607444       -0.2328588906       -1.2392004624
 C        -5.8231009452        1.2493345043       -0.9220250495
 C        -4.6308723283        2.3405327715       -0.5608929773
 C        -4.4987572956        3.7456506779       -1.2437853745
 C        -6.8753926548        1.8192170676       -1.9150528949
 C        -6.4355809876        0.9701908506        0.5288222446
 O        -4.0290418880       -0.4567643580       -1.0992310212
 O        -3.8104607604        2.0104848163        0.2440384058
 C        -3.0667619127        4.2653864813       -1.1104053915
 C        -1.8824350008        3.4633046468       -1.7885271039
 C        -0.5161158327        4.2005524312       -2.3634062029
 C        -0.1624614006        5.5986953389       -1.8473614719
 C         1.1437661365        6.3239036942       -1.8053287659
 O        -1.9786388315        2.2502549350       -1.8454511393
 O        -1.1014128531        6.2591910804       -1.4138813312
 C         0.6280053668        3.2172300256       -2.0226737061
 C        -0.7403332671        4.4443648162       -3.8657439495
 H         7.9282401468       -2.4674803056       -2.9724416459
 H         6.8471374539       -2.8981277428       -1.6718690557
 H         6.5433412586       -3.5160534320       -3.3041349240
 H         4.4268535019       -0.1517620864       -1.0481184978
 H         5.9914419472        0.1875805521       -0.2031394249
 H         8.9294535720       -0.6087040093       -2.6068040036
 H         7.9475462234       -0.7684316187       -1.0339974046
 H         8.5312442285        0.9238661427       -1.8230846555
 H         6.2199707970        0.9327269836       -4.6702030103
 H         7.8340666891        1.1892273669       -4.0787308637
 H         7.3547966839       -0.3565850838       -4.8676861575
 H         5.5134818644        2.2577706360        0.5752827873
 H         4.1867062941        2.3984960406       -0.5189040509
 H         2.2410415317        0.5539555700        4.5412812405
 H         2.5677984104        2.0318995266        5.4794859523
 H         3.7533991882       -0.8432007013        4.3792150494
 H         4.2992033475       -1.5614012171        2.8999934966
 H         2.5956045913       -0.8151689933        2.8518771646
 H         6.1673409405       -0.0341819413        3.6242641554
 H         6.3488757160        0.7231337147        1.9639873230
 H         6.1919890279        1.7812284991        3.1776556775
 H         1.1717119061        1.8503143422        2.6390572160
 H         1.5701640652        3.3845919378        3.4219742093
 H        -3.5369366735        0.8380847895        3.4701861499
 H        -3.2038085204        0.1880299276        2.0838772912
 H        -2.3376351557        3.5296825876        5.5405339792
 H        -2.4096073518        1.7950651927        5.3944595459
 H        -3.3716552617        2.7945885002        4.2684512413
 H        -0.1532913847        4.5559550616        2.9919509547
 H        -1.7737268457        4.1807056618        2.2965074157
 H        -1.4771678602        4.9419042007        3.8765023657
 H        -1.2717228358       -0.9688045099        2.5752287628
 H        -1.3078932790       -0.4597156047        4.3089577468
 H        -1.1630746566       -5.6190409253        2.0786052162
 H        -2.6780414804       -4.4935357958        1.9517663027
 H        -0.2547848967       -2.2780418261        5.2709637269
 H        -0.1621211485       -3.9805116198        5.2823485264
 H        -1.5333741643       -3.1677934240        6.2827585370
 H        -3.4815875052       -4.6783054795        3.8391678323
 H        -2.3111653031       -5.3240421636        5.0098945628
 H        -3.5354576668       -4.0635707729        5.2630973448
 H        -1.3449281944       -4.6709875840       -0.2717282620
 H         0.1633368359       -4.5727663442        0.5104869255
 H         0.5814222133       -2.5087105556       -3.9890112543
 H        -0.0504649709       -3.9091960971       -3.0234296360
 H         0.2798448217       -0.2359803929       -0.0732476137
 H         1.8273914232       -0.4999958817       -0.9456851684
 H         1.5549244793       -1.2316145739        0.6832444359
 H         2.4241096930       -2.8515970490       -1.8541965223
 H         1.9096171864       -3.6829865314       -0.2898679663
 H         1.2510782807       -4.2191575258       -1.7304110757
 H        -2.0621923523       -1.8640507963       -3.9527545780
 H        -1.4225815670       -3.1063657524       -5.1979152927
 H        -6.4029720721       -3.3027240274       -2.3844285109
 H        -5.0700088646       -3.1100502644       -1.2463388927
 H        -3.3271185114       -4.4601945059       -6.0905318760
 H        -4.1361837097       -2.7790858048       -6.1978529048
 H        -4.9992716940       -4.4493361645       -6.1289479491
 H        -4.6607127875       -5.9993512936       -4.2824457453
 H        -5.0995110934       -5.4275309123       -2.7007893651
 H        -5.9194683610       -4.9169385800       -4.1796122171
 H        -6.8198260092       -1.6969023714       -0.6463514159
 H        -6.9714011901       -1.0007923763       -2.2821825519
 H        -4.9115981910        3.8662812269       -2.2432732970
 H        -5.0741816620        4.4605245781       -0.6436540784
 H        -6.8099244785        2.9332670732       -2.1158925281
 H        -7.9269660338        1.6315729365       -1.7057074275
 H        -6.7493162787        1.5902534127       -2.9922928157
 H        -7.3170032116        1.4394609130        0.6783969166
 H        -6.6432773298       -0.1004711798        0.6381916732
 H        -5.7828542843        1.3463403133        1.3311969226
 H        -3.0008931828        5.3379892384       -1.4809856661
 H        -2.6682740949        4.4078269701       -0.1105239085
 H         2.0674985624        5.7193432379       -1.8354825443
 H         1.2074100222        6.9856532239       -2.6449188210
 H         1.2164558408        7.0052270459       -0.8966495921
 H         0.6053701851        2.6704494794       -1.0971302493
 H         1.5800277612        3.7271513161       -2.0779842607
 H         0.7473442096        2.5513550346       -2.8989130708
 H        -1.2912662327        3.7138436693       -4.3637984562
 H        -1.3635266501        5.3244077336       -4.0430526942
 H         0.1792352357        4.6821842917       -4.3480425493
 Na       -1.9516486500        0.5175206344       -0.3318261125
