155

 C         5.7212158319       -1.9031752079       -3.8727715209
 C         5.5959068223       -1.3165828652       -2.5268794021
 C         6.4364091339       -0.0488309942       -2.2106949786
 C         5.4654760061        0.8677393990       -1.3526728779
 C         5.5053403165        0.7619647152        0.1567588016
 C         7.6764171027       -0.4852776914       -1.4177203119
 C         6.9440955904        0.7978026491       -3.4037312429
 O         4.9305576271       -1.8311598864       -1.6617309246
 O         4.5537253021        1.4757051035       -1.8698329316
 C         4.3795903033        1.6970746973        0.7979912298
 C         4.0447180182        1.2396561426        2.2487907919
 C         4.6014599279        2.0861762783        3.5294718856
 C         3.3360055636        2.5818256175        4.3834193543
 C         2.1063419836        1.6351275892        4.7172558628
 O         3.2763901438        0.2830291385        2.3838428097
 O         3.2796396792        3.7551729464        4.7053064391
 C         5.3285439591        1.1103007702        4.4721927173
 C         5.5852440627        3.2782091192        3.1628735789
 C         0.8661463490        2.3812402929        4.2465916493
 C        -0.4358566923        1.6892514910        4.6779818844
 C        -1.7422601059        2.3083136307        3.9269755733
 C        -2.2214440739        1.3096214858        2.8518759001
 C        -3.0055911037       -0.0117611188        3.3395787332
 C        -2.7766884655        2.5582029557        5.0261953187
 C        -1.4059566644        3.6847400799        3.1917141967
 O        -0.4493977092        0.7708779824        5.4655561944
 O        -2.0968309005        1.5038765368        1.6801860619
 C        -1.9678828745       -1.0820354552        3.3576662411
 C        -2.5113840916       -2.3800819088        3.8997448950
 C        -1.5988784266       -3.6406933941        4.1437186735
 C        -0.7241712019       -3.9045777078        2.8095567384
 C        -1.4764650881       -4.0943285852        1.5294182767
 O        -3.6823728172       -2.3733296897        4.1479063548
 O         0.5067066746       -3.9026744099        2.9689908432
 C        -0.7162663811       -3.3665131287        5.4283375238
 C        -2.6479184457       -4.8789974241        4.4497651689
 C        -0.5912382805       -3.9220709502        0.2696971796
 C        -0.4782709498       -2.5295464715       -0.1169343856
 C         0.5650776324       -2.0471061327       -1.0882485208
 C        -0.3691901131       -1.5484683803       -2.3646943234
 C        -0.0508510769       -1.8378717964       -3.7635344865
 C         1.3169011298       -0.7393128567       -0.6212242889
 C         1.6409055131       -3.0705577181       -1.5080753814
 O        -1.3950251890       -1.7398416868        0.1916438379
 O        -1.2108187863       -0.7270091501       -2.1836130651
 C        -1.3779363980       -2.1988765089       -4.5426083455
 C        -2.0537591100       -3.3404722879       -3.8333977136
 C        -3.3476814317       -4.0195380651       -4.4027287860
 C        -4.4521553314       -2.8507986846       -4.3353622587
 C        -5.3425166166       -2.6571049466       -3.0599756240
 O        -1.7562957139       -3.5606585579       -2.6994942673
 O        -4.4212124410       -1.9476764450       -5.1740969184
 C        -3.2086368917       -4.0890223993       -5.9666805716
 C        -3.7439444384       -5.3845914734       -3.9670066074
 C        -6.0853061263       -1.3196825698       -2.9775371809
 C        -5.4787990573       -0.4927352754       -1.9227157628
 C        -5.5408034811        1.0048515788       -1.9210408442
 C        -4.1426327099        1.7264902746       -1.9694029199
 C        -3.3809952816        1.8377965399       -3.3419036319
 C        -6.4210117397        1.6078105290       -3.0521234627
 C        -6.1509058914        1.2972331104       -0.5232015286
 O        -4.7197307322       -0.9736565916       -1.0773716230
 O        -3.8167042951        2.3665491675       -1.0189963741
 C        -2.5974501178        3.1230490658       -3.4544054385
 C        -1.3961260233        3.0940389362       -2.3939638243
 C        -0.5903383376        4.4900839270       -2.0820579010
 C        -1.0512799347        5.0418047362       -0.7300314250
 C        -0.6395043443        6.4703068798       -0.3919218526
 O        -1.1700947119        2.0693841680       -1.7662599321
 O        -1.6918586872        4.3770555921        0.0544429847
 C         0.9200818159        4.2112787307       -2.0138619142
 C        -1.0670366407        5.4572707920       -3.1776425090
 H         5.6448947737       -1.2147790822       -4.6494602781
 H         6.6534893838       -2.4876933220       -4.0239038626
 H         4.9013688871       -2.5631277410       -3.9767072537
 H         5.3437536068       -0.2403794748        0.4067814257
 H         6.5182140574        1.0964907444        0.6123150778
 H         8.3330824047       -1.0984292238       -1.9398020206
 H         7.4247943204       -0.9718603967       -0.5295960852
 H         8.0974961601        0.3713796110       -1.0558986550
 H         6.1621316064        1.3662369956       -3.9404309294
 H         7.6075321276        1.5280517535       -2.9789255754
 H         7.4493349808        0.2619474160       -4.2148257168
 H         4.5311072132        2.7598896965        0.5481989550
 H         3.4448292679        1.4899498864        0.1703296286
 H         2.2973299523        0.6668295388        4.2215374179
 H         1.8188262490        1.5862154963        5.7639738363
 H         5.6619596177        1.5877762636        5.4819486059
 H         6.2322967633        0.7385192968        3.8351239151
 H         4.6303641904        0.3017008041        4.5833675406
 H         5.2269146751        4.1233876345        3.7376119131
 H         6.5403680799        3.0062903568        3.4960731591
 H         5.8115792816        3.5677788977        2.1404397247
 H         0.8226885508        2.3789464263        3.1872569124
 H         0.7734449574        3.4263434072        4.5735143340
 H        -3.5268010424        0.0493532040        4.3199334906
 H        -3.8814374643       -0.2326115043        2.7353269384
 H        -3.1609708600        3.6090024259        5.0121709404
 H        -2.6587880016        2.2204647063        6.0805231297
 H        -3.7464304984        1.9693505023        4.8804216600
 H        -2.1622141942        3.7448964667        2.4696159809
 H        -1.3850506409        4.4269271836        3.9152639498
 H        -0.5100420759        3.7019125466        2.6369788372
 H        -1.5302453491       -1.0697000270        2.3486540876
 H        -1.1241612494       -0.7267927652        4.0443603236
 H        -2.0500975858       -5.0416688191        1.3164657295
 H        -2.4039692096       -3.5227185670        1.3024070643
 H        -0.7014564966       -2.3183169606        5.6839425140
 H         0.3225928510       -3.5712647764        5.2855110651
 H        -1.2582516659       -3.8071486215        6.1653598668
 H        -3.2876375740       -5.0687617035        3.5691417874
 H        -2.1430489714       -5.8292804550        4.7740477222
 H        -3.4984092293       -4.5351530555        4.9911759873
 H        -1.0169836342       -4.4294206786       -0.6165756822
 H         0.3751612789       -4.3004246148        0.4805594883
 H         0.3884170754       -0.9448443967       -4.1247648753
 H         0.6633461906       -2.6484770418       -3.7796180570
 H         0.6458762477        0.0814064501       -0.3157842649
 H         1.8412770094       -0.4746978856       -1.5595588731
 H         1.9884778780       -0.8717586177        0.1842278805
 H         2.1363151743       -2.6435089575       -2.2987011488
 H         2.3221116473       -3.1746364544       -0.7025621747
 H         1.3139885451       -4.1155782954       -1.6653575891
 H        -2.1030628241       -1.4650101177       -4.4401972239
 H        -1.2454152182       -2.4164718928       -5.6555804069
 H        -6.0044954549       -3.5154837011       -2.9451020402
 H        -4.7032055110       -2.8529055423       -2.2170940934
 H        -2.9568073663       -3.1873821764       -6.4848735550
 H        -4.1620701477       -4.3708273470       -6.3049516454
 H        -2.4037977249       -4.6858146796       -6.4221356667
 H        -2.8930138535       -6.1788973951       -3.9286051340
 H        -4.2293339312       -5.3928664768       -3.0004988264
 H        -4.4617126413       -5.8210969899       -4.6456207397
 H        -7.2083865990       -1.4674195432       -2.6926460281
 H        -6.0994292781       -0.8881702499       -4.0027104753
 H        -2.6741551495        1.0401587125       -3.6814127431
 H        -4.1103784273        1.9373683021       -4.1743296411
 H        -6.5832015791        2.6213236182       -2.7872894607
 H        -7.2839951497        0.9879128857       -3.1544947937
 H        -5.9705159540        1.4561556667       -4.0167149422
 H        -5.9192621286        2.3559582909       -0.2990745623
 H        -7.2046194742        1.0210611056       -0.6106498653
 H        -5.4936182330        0.6898039234        0.1432769721
 H        -2.1329342412        3.2691860159       -4.4344190067
 H        -3.1187312440        4.0627394294       -3.2490456514
 H        -0.9629615629        6.6976785557        0.6099176753
 H         0.3910287293        6.5235168315       -0.4746815997
 H        -1.0988322582        7.2034222942       -1.0766794168
 H         1.1193079336        3.3792609745       -2.6286190008
 H         1.1354271386        4.0274659549       -0.9758045886
 H         1.5618774639        5.0620506629       -2.2550384527
 H        -0.8536351258        5.0577897696       -4.1615314319
 H        -2.1237816524        5.6681866470       -3.1918913903
 H        -0.4686488122        6.3476857412       -3.1413953245
 Na       -2.4725221850        0.2536056381       -0.4740155036
