155

 C         5.4340311047       -1.6358145210       -3.9144831494
 C         5.4987711156       -1.2741891359       -2.4019837472
 C         6.2471595959       -0.0319494972       -2.1227915160
 C         5.3012755947        0.9824378351       -1.2474888235
 C         5.4071133373        0.8361349686        0.2658034246
 C         7.5558406360       -0.4263494248       -1.3597212098
 C         6.6447140506        0.7757728973       -3.3028893518
 O         4.9938132204       -2.0132057719       -1.5918488948
 O         4.3820987106        1.5185112830       -1.7921439601
 C         4.4226134229        1.7914808777        1.0784588554
 C         4.1640204950        1.2007704419        2.5162038774
 C         4.4898640393        2.1232699239        3.7688621125
 C         3.1993771731        2.8403571385        4.2277150265
 C         1.9736742534        2.0101325093        4.6612854161
 O         3.7037219168        0.0959613177        2.5556771963
 O         3.1062739824        4.0575158010        4.1659408142
 C         5.0706414520        1.1928768047        5.0059434867
 C         5.6232650202        3.0782728880        3.4783988647
 C         0.6769741595        2.7348707226        4.1717417699
 C        -0.5913410086        1.9531646843        4.6118815489
 C        -2.0100111483        2.4019190395        4.1521439899
 C        -2.2667064189        1.2197708823        3.0780424664
 C        -2.8559278764       -0.1484933702        3.7445641308
 C        -3.0774686216        2.4084137404        5.2752780106
 C        -1.9255882935        3.6894235503        3.3286076142
 O        -0.4091530322        0.9619062381        5.3629733429
 O        -1.8986398141        1.3720897886        1.9227538755
 C        -2.1085309217       -1.3137179011        3.2088701660
 C        -2.6514777587       -2.8530384689        3.6423247581
 C        -1.6475873601       -3.9579445583        4.0602069383
 C        -0.6572101072       -4.2182462604        2.8978113737
 C        -1.2735651693       -4.6470700028        1.5230907323
 O        -3.8092584924       -2.8779609482        3.8989726584
 O         0.5253617428       -4.2057227476        3.1555861761
 C        -0.8783254999       -3.3906413485        5.2500394769
 C        -2.3839981221       -5.2005337974        4.4692810524
 C        -0.4838798635       -4.1347979257        0.1818426293
 C        -0.5692280110       -2.6498598019       -0.2063435643
 C         0.6227251629       -2.0463816543       -1.0722723742
 C        -0.1021118661       -1.4600770318       -2.4144462323
 C         0.3084946695       -2.0606319351       -3.7228721343
 C         1.1940251827       -0.8268381909       -0.2495575834
 C         1.8230668892       -2.9834093852       -1.3453819617
 O        -1.4332124642       -1.8728754136        0.2433999800
 O        -1.0149256291       -0.7200087956       -2.3182668273
 C        -0.8817385263       -2.4123707063       -4.7201849521
 C        -1.7641825917       -3.5300373455       -3.8788134312
 C        -3.1832991529       -3.9146647928       -4.5419569333
 C        -4.1795236571       -2.6469354392       -4.2173931202
 C        -4.9224908937       -2.6376666724       -2.8801922537
 O        -1.2548916102       -4.0562897598       -2.9451124883
 O        -4.2024773050       -1.7411074478       -5.0152910527
 C        -3.1545117887       -4.0887516317       -6.0285183275
 C        -3.7224658155       -5.1901948607       -3.8359974452
 C        -5.8741228099       -1.4492693641       -2.4278393322
 C        -5.0757623834       -0.2615356797       -2.0765326248
 C        -5.7796070148        1.2574474607       -2.2265074632
 C        -4.5669763591        2.1907525906       -2.3281382247
 C        -3.7655497720        2.2196299635       -3.6479009056
 C        -6.5972216239        1.2277105058       -3.5817288462
 C        -6.5065430954        1.4804006511       -0.8874700084
 O        -3.9386668538       -0.5126873360       -1.6700742328
 O        -3.9967251032        2.6005478622       -1.3263586702
 C        -2.6718716791        3.3123489920       -3.6653640143
 C        -1.5734698506        3.2215849234       -2.5352144877
 C        -0.6984970405        4.5593472990       -2.1137700593
 C        -1.2274915180        5.0098930837       -0.6991456419
 C        -0.9416686838        6.4207251380       -0.1358430748
 O        -1.3907143687        2.1920301313       -1.9241481306
 O        -2.0154213190        4.2823302839       -0.1086164639
 C         0.8113248484        4.1767939883       -1.8219696595
 C        -0.9400146408        5.5985626652       -3.2113225729
 H         6.4599684452       -1.9683646543       -4.3291251306
 H         4.7292209036       -2.3485647086       -4.2288188973
 H         5.1944629596       -0.7694640864       -4.4990358774
 H         5.1410612041       -0.1394134487        0.5111512311
 H         6.4250274170        1.1475890712        0.6439150082
 H         8.1312603524       -1.1420765866       -1.8839198837
 H         7.3340158652       -0.8254409715       -0.3946323839
 H         8.1080444696        0.4470297657       -1.2108593775
 H         5.7934123342        1.1924045057       -3.8391422829
 H         7.2691074066        1.5757042418       -3.0000802529
 H         7.2611527070        0.2147547440       -3.9933520944
 H         4.6488356468        2.8428686543        1.1880562461
 H         3.4154465694        1.7742698211        0.5813646313
 H         1.9801251104        1.0526401036        4.1785203838
 H         2.1036172261        1.9716952443        5.7505855466
 H         5.3449253685        1.9332945679        5.8475842491
 H         5.8928918664        0.6330419631        4.6827022389
 H         4.2393082790        0.4366770873        5.2886046942
 H         6.2837568928        3.1100756672        4.3857969511
 H         6.2772544998        2.6912959188        2.6713794363
 H         5.2319455386        4.1178146042        3.2740627244
 H         0.7565971690        2.7770086728        3.1479915164
 H         0.5024867452        3.7726729203        4.4313973478
 H        -2.8979887913       -0.1993585045        4.8335134810
 H        -3.9369835051       -0.1478451155        3.5027086242
 H        -3.5079129453        3.4676915826        5.3736454929
 H        -2.7284986817        2.0535037214        6.2267181893
 H        -3.9204273897        1.7553505781        5.1303673751
 H        -2.9213508987        4.1597450238        3.1883703151
 H        -1.2685020508        4.4069717185        3.8835151622
 H        -1.4788742144        3.3787775127        2.3700119646
 H        -2.1327632549       -1.3481346114        2.0957534414
 H        -1.0519922703       -1.2083276412        3.5241253855
 H        -1.3553855803       -5.8094541354        1.4005290012
 H        -2.3367267268       -4.3796751096        1.4177274806
 H        -1.4759828601       -3.3581459077        6.1315678040
 H        -0.3990765538       -2.4917490339        5.0638883514
 H        -0.1452434957       -4.1779079387        5.3894760629
 H        -3.2534879458       -5.3690078974        3.7642803909
 H        -1.6440679657       -6.0009251832        4.5714004110
 H        -2.8740288377       -5.0679252636        5.5205920582
 H        -0.6468107348       -4.6191602544       -0.8214537433
 H         0.5172059369       -4.3298771855        0.5549541689
 H         1.0544431232       -1.4527766772       -4.1996336526
 H         0.8065771309       -2.9812923366       -3.4569415946
 H         0.3118153632       -0.1729363245       -0.0363061553
 H         1.9139688495       -0.2146019771       -0.8881099523
 H         1.7380227037       -1.0749405190        0.6531879076
 H         2.4791584695       -2.6715214297       -2.0789895793
 H         2.4633264579       -3.1764064856       -0.4726173552
 H         1.3523171299       -3.9542484100       -1.6991478139
 H        -1.4957321735       -1.6005744914       -4.9270987164
 H        -0.4426915474       -2.9006319712       -5.6635688010
 H        -5.3874511321       -3.6262198745       -2.6815259176
 H        -4.1890456165       -2.7726874008       -2.1015154490
 H        -3.1784303954       -3.0382387857       -6.4416580999
 H        -4.0219055958       -4.5949279085       -6.4253273091
 H        -2.1939924712       -4.4561960679       -6.5493620427
 H        -3.5841893320       -6.0259122970       -4.6195386161
 H        -3.2842512856       -5.4597146484       -2.8727850466
 H        -4.7947869723       -5.2338899365       -3.6352475178
 H        -6.1392488805       -1.8888853211       -1.4638634557
 H        -6.8046658560       -1.3458611321       -3.0211184071
 H        -3.2754928296        1.2349864542       -3.7028130392
 H        -4.3114041357        2.4467552439       -4.5704893127
 H        -7.1200127381        2.1020875013       -3.6139805531
 H        -7.3239224742        0.4352224145       -3.5934860324
 H        -5.9507617660        1.0395430784       -4.4180041402
 H        -7.2310262846        2.3690560282       -1.1696819519
 H        -6.9643204716        0.5568568398       -0.6397815233
 H        -5.7495183082        1.8026209054       -0.1671597261
 H        -2.0807894655        3.4161789438       -4.5756177327
 H        -3.1285679142        4.2620802449       -3.6813814153
 H        -0.3419643437        6.3171877462        0.7754604975
 H        -0.4024687805        7.0072450886       -0.8520185377
 H        -1.8972629189        6.9516615611        0.0100970270
 H         1.3609559361        4.1746615643       -2.7177052193
 H         0.6678681602        3.1163538016       -1.4724039987
 H         1.3315288614        4.6590490667       -0.9689373248
 H        -0.6260425690        5.2578445336       -4.1707778750
 H        -1.9864769983        5.9325488370       -3.2243519303
 H        -0.3165600098        6.4798464540       -3.0467500443
 Na       -1.9759205228        0.5425638926       -0.5079975956
