155

 C         4.6382397571       -1.0784658017       -3.7924409892
 C         5.2162020841       -0.9478270240       -2.3883748866
 C         6.0107369596        0.2953396508       -1.9220887992
 C         5.1935818268        1.0170623277       -0.7557493959
 C         5.2917952390        0.5622829010        0.6963850990
 C         7.4936212580       -0.0645749486       -1.4346878987
 C         6.0951725918        1.3922847182       -2.9891180697
 O         4.9932219264       -1.9119433826       -1.6889882749
 O         4.5168786767        1.9851232127       -1.0051637346
 C         4.5144955503        1.6264443601        1.5480197017
 C         4.4765234961        1.0603965104        2.9798226022
 C         4.0241928148        2.1340503986        4.0589492485
 C         2.6956251525        2.7391050352        3.5949454896
 C         1.4140568075        2.7149860367        4.5522471988
 O         4.5676255074       -0.0941529587        3.2985204834
 O         2.6141943725        3.4096336421        2.5999431628
 C         3.9898519647        1.6588646957        5.5169906882
 C         5.0945626876        3.2617076048        3.9267005584
 C         0.1274559031        2.8091446735        3.6231272270
 C        -1.1150349408        2.2503385874        4.3220496815
 C        -2.5207383319        2.1082953049        3.5933169054
 C        -2.3998179028        0.8349770693        2.8048831082
 C        -2.6335891702       -0.4415248824        3.5739902275
 C        -3.6781397844        2.0317155780        4.6288454086
 C        -2.7374451389        3.3438250485        2.6384574210
 O        -1.0059374621        1.7713723772        5.4676280629
 O        -1.8526332526        0.8076603940        1.7144350523
 C        -1.9627918424       -1.6803679374        2.9924244657
 C        -2.6056023347       -3.0372386565        3.4007307172
 C        -1.7347628484       -4.4175109898        3.5801750192
 C        -0.7696449371       -4.3828646800        2.2937016283
 C        -1.2015683863       -4.8374661628        0.8973777971
 O        -3.6875714223       -2.9006888072        3.8881227041
 O         0.3577385492       -4.0053300273        2.4951155492
 C        -1.1369370583       -4.2092108802        4.9840027035
 C        -2.7015417231       -5.7055458395        3.5834228566
 C        -0.1250182417       -4.3712106656       -0.0597047958
 C        -0.0559642473       -2.8279625238       -0.1825993314
 C         1.2068040414       -2.1597932312       -0.7032566762
 C         0.6633054640       -1.7115724902       -2.0918887355
 C         0.9554368247       -2.5411713615       -3.3522313835
 C         1.6377974987       -1.0141948578        0.2028815444
 C         2.4887473799       -3.1036799157       -0.7612406176
 O        -1.0283098918       -2.1775385502       -0.0413168900
 O        -0.0349574255       -0.7024910016       -2.1497775374
 C        -0.3344039578       -2.5051472479       -4.2324322473
 C        -1.2961575497       -3.6038248330       -3.8159055336
 C        -2.7573912953       -3.6915245415       -4.4289390943
 C        -3.5011580338       -2.4918123406       -3.6256324305
 C        -3.7214383208       -2.5243954281       -2.0179005449
 O        -1.1369337188       -4.3840289831       -2.9052328658
 O        -3.8710062494       -1.5223367533       -4.2028486271
 C        -2.9143541514       -3.4445986124       -5.9477821910
 C        -3.4319168140       -5.0894590019       -4.0540279138
 C        -5.0158622083       -1.5647477303       -1.9091652925
 C        -4.6060086859       -0.0879136900       -2.0682765157
 C        -5.6895615696        0.8635433122       -2.7905004404
 C        -5.1006695542        2.3400148447       -2.9494271777
 C        -3.7296105115        2.5055530097       -3.4791911987
 C        -6.0438426820        0.3406846636       -4.2901157647
 C        -7.0219885245        0.8832108807       -2.0493097897
 O        -3.6079661086        0.2912425451       -1.4678145556
 O        -5.9099371327        3.2604992466       -2.7550511106
 C        -2.9426120429        3.6842369698       -2.9014344308
 C        -1.7930311782        3.3931903860       -2.0582930413
 C        -0.8629766235        4.6361833691       -1.7130886206
 C        -1.5193424452        5.4676240668       -0.4489072243
 C        -0.9199597258        6.8252165510       -0.1227569511
 O        -1.6450424329        2.3135189428       -1.5819247572
 O        -2.2663093247        4.8549427906        0.2659977570
 C         0.5456074574        4.0572618530       -1.3279746305
 C        -0.4949647990        5.6629974182       -2.8490782703
 H         3.7309857524       -1.7573514963       -3.7690973107
 H         4.3423497768       -0.2651061712       -4.3666250941
 H         5.3376100182       -1.5538672089       -4.4200976375
 H         5.0164711213       -0.4693183912        0.9076822052
 H         6.3476309998        0.6035484191        0.9623317589
 H         8.0620409482        0.0441086676       -2.3096035101
 H         7.5981373465       -1.0580636070       -1.0416674744
 H         7.7060894284        0.6314564174       -0.7095401583
 H         5.1602240862        1.4456731292       -3.5738342893
 H         6.2706312544        2.3508849128       -2.5252755044
 H         6.8298400114        1.1559329088       -3.7439682748
 H         5.0450635280        2.6082609666        1.4591122717
 H         3.4514586190        1.7785260407        1.2831284731
 H         1.4000768638        1.7922486553        5.1281773300
 H         1.4647100621        3.4826089379        5.2789657534
 H         3.5780737196        2.4457234310        6.2366763779
 H         4.9276397624        1.3644946684        5.8214943006
 H         3.2618007726        0.7181107092        5.6441220149
 H         5.1792321044        3.6923884238        4.9717048672
 H         6.0417966536        2.8938848605        3.5149004959
 H         4.7574180928        4.0443469592        3.1861578191
 H         0.1518971180        2.1679349400        2.7098552974
 H        -0.0241613404        3.8494496848        3.4445677588
 H        -2.2128515337       -0.3059237367        4.5998284737
 H        -3.6841460946       -0.6634620072        3.5831026038
 H        -3.6742636379        3.0642485632        5.1537363191
 H        -3.4970220790        1.2361394571        5.3315295698
 H        -4.5827109685        1.8802282235        4.0575269288
 H        -3.5952527575        3.0356291159        1.9688603367
 H        -2.9831226487        4.2738491180        3.1867509736
 H        -1.9421447136        3.6604415908        1.9175422524
 H        -1.9624574131       -1.5309365739        1.9046848388
 H        -0.8447893201       -1.7548052989        3.2224702275
 H        -1.2572426505       -5.8891951442        1.0020724362
 H        -2.0911986872       -4.0926640710        0.8577794638
 H        -0.6709834449       -5.0710122222        5.3833088022
 H        -1.9889555364       -4.1025091558        5.5391355693
 H        -0.4635399607       -3.4073333568        5.1621400624
 H        -2.7045049735       -6.0230099466        2.5366106515
 H        -2.1335026635       -6.4749134672        4.1579412289
 H        -3.7000842295       -5.5024729331        4.0545355664
 H        -0.2868936147       -4.8164890484       -1.0660913318
 H         0.8388207484       -4.7256326718        0.2803022625
 H         1.7825735792       -2.0959916565       -3.8164916182
 H         1.3505788727       -3.5008737571       -2.9780909068
 H         0.8187693368       -0.3596081872        0.5891276887
 H         2.3914177054       -0.3546916970       -0.2548384896
 H         1.9895585897       -1.4260814039        1.1369751387
 H         3.2398203907       -2.6132605871       -1.2504891126
 H         2.7681792783       -3.3233767570        0.2423456751
 H         2.4705368419       -4.1540473153       -1.1767095538
 H        -0.7430054336       -1.4665305739       -4.0350400745
 H        -0.1226831809       -2.6793240462       -5.2665178150
 H        -3.9274166879       -3.4622599913       -1.5915435499
 H        -2.8596441838       -2.0017031899       -1.5139735027
 H        -2.3163639934       -2.5359885623       -6.2084447944
 H        -3.9705920994       -3.1474436471       -6.0571527848
 H        -2.6668278200       -4.3324042831       -6.6285747319
 H        -3.9404581059       -5.4304493631       -5.0443402992
 H        -2.6186397755       -5.7576329181       -3.8099143620
 H        -4.2166158180       -5.0238184906       -3.3209831874
 H        -5.5428236076       -1.7161586639       -0.8710466599
 H        -5.8397377078       -1.8351158802       -2.6094429270
 H        -3.0691251527        1.6301983460       -3.3148815784
 H        -3.7696275392        2.5547331192       -4.5723776739
 H        -6.8031769930        0.9676875830       -4.6736866139
 H        -6.2927022116       -0.6705715619       -4.2419366074
 H        -5.2378374971        0.4513876177       -4.9671297292
 H        -7.6337473298        1.8477108161       -2.3919142788
 H        -7.5231977029       -0.0588012209       -2.2776233426
 H        -6.9012994762        1.0167352189       -0.9623053811
 H        -2.5529678820        4.2856365530       -3.6580359474
 H        -3.5928351854        4.2653018791       -2.2061466096
 H        -0.2786174652        7.2385380311       -0.9034328332
 H        -1.7515336139        7.5004127749        0.0383166809
 H        -0.2926756080        6.6838567093        0.8302110118
 H         0.9218695923        3.2958970236       -2.0594969334
 H         0.5023945857        3.6246025620       -0.3323507089
 H         1.3173120456        4.8708841304       -1.3139804408
 H         0.0033492380        5.1116262693       -3.7165482741
 H        -1.3538291110        6.1860449204       -3.2925151589
 H         0.2703552135        6.3250006853       -2.4495270402
 Na       -1.4195646533        0.0874652029       -0.4905169730
