155

 C         6.3832894327        3.6151934063       -3.0307379358
 C         6.3062302046        2.2246246044       -2.4500823101
 C         6.8187424147        2.1292425403       -0.9875464457
 C         5.7105058221        2.8900485308       -0.0251790256
 C         4.7948960241        2.0221058866        0.8183301382
 C         7.2769535450        0.6611932667       -0.5097310728
 C         8.1369931477        2.9649274984       -0.8864710895
 O         5.9761064072        1.2107468632       -3.1030195291
 O         5.7063654036        4.0952200591       -0.0645076738
 C         3.7250314411        2.7968562157        1.6587825495
 C         3.4412991886        2.0974531505        2.9973677463
 C         2.7271948746        3.0062384952        4.0957624540
 C         1.2601202165        3.1036248673        3.7629453293
 C         0.1402573821        2.4691913287        4.7252906792
 O         3.5100126767        0.8772103266        3.1691050823
 O         0.9238527020        3.6304236868        2.7270201871
 C         2.9584806581        2.4190824017        5.5247062948
 C         3.2651180942        4.5073498554        3.9383936404
 C        -1.1676356994        2.4948632867        4.0766702652
 C        -1.8553741433        1.1843017372        4.0472415792
 C        -3.3603503379        1.1208393860        3.3826077892
 C        -3.2707290402       -0.0209637221        2.2330498050
 C        -4.3368326082       -1.1721512771        2.0416815616
 C        -4.3587553354        0.8599306322        4.5283972538
 C        -3.7825489133        2.3663244260        2.5599808123
 O        -1.4661048818        0.1325852722        4.4642402205
 O        -2.2010017376       -0.1249712029        1.6499181066
 C        -3.8893839129       -2.1463500702        3.1932732459
 C        -3.8457776755       -3.6255573002        2.7089722366
 C        -3.0173121260       -4.6129533228        3.6995378164
 C        -1.5183205028       -4.3248866939        3.4315619820
 C        -1.0482684841       -4.7823659440        1.9872735133
 O        -4.5219956834       -4.0128963211        1.7890632813
 O        -0.8208413507       -3.5872012479        4.1308147311
 C        -3.2099616694       -4.2181876053        5.2013793894
 C        -3.4735436762       -6.0648737486        3.4542767347
 C         0.2412221577       -4.0270982528        1.4805662417
 C        -0.1279790675       -2.7819285185        0.6736858435
 C         1.0826103541       -2.0252694949       -0.0329059730
 C         0.7014046330       -1.8136154321       -1.5870322380
 C         1.5894114533       -2.2462515834       -2.7520864140
 C         1.1205308484       -0.5974229138        0.6454761465
 C         2.3823713017       -2.6844278033        0.1265900942
 O        -1.3220600478       -2.5108237303        0.5878446190
 O        -0.4299210615       -1.4055827524       -1.8608992812
 C         0.7694481512       -2.1328712912       -4.0613574835
 C        -0.3088152542       -3.1451325963       -4.1748905840
 C        -1.1831111408       -3.1899476144       -5.5071111989
 C        -2.5229748413       -2.3712178371       -5.2848074308
 C        -3.6730374286       -3.1319973184       -4.6220692260
 O        -0.5690074043       -3.9348777832       -3.2532278244
 O        -2.6358549766       -1.2461210746       -5.7062854844
 C        -0.4780710793       -2.6103764801       -6.7359717692
 C        -1.2812491867       -4.6878206832       -5.6926596777
 C        -4.9116579682       -2.3864956850       -4.0384366834
 C        -4.4793292871       -1.3910619786       -2.9003579230
 C        -5.0947916093        0.1218112301       -2.7196506356
 C        -4.1629051488        0.9960346029       -1.9118318332
 C        -3.6047156869        2.3309427828       -2.4636806509
 C        -5.4338419002        0.6669373818       -4.1551852218
 C        -6.3252134393       -0.0877599206       -1.8136954383
 O        -3.6362743523       -1.8413310130       -2.1456519250
 O        -3.9169364253        0.7404525463       -0.7567282997
 C        -2.6466835474        2.8773640416       -1.4653830676
 C        -1.1653302260        2.4390503053       -1.5108400209
 C        -0.0869098987        3.5241384779       -1.8939926398
 C        -0.4672530238        4.7687656496       -0.9972117997
 C         0.0738420080        6.1412334652       -1.4703636116
 O        -0.8674346825        1.2369538185       -1.3146442107
 O        -1.0922531356        4.5991048327        0.0421628349
 C         1.3709060723        3.1365528408       -1.4721301762
 C        -0.2321924625        3.7798223545       -3.3928732779
 H         5.4971682711        3.8674104504       -3.6812870057
 H         6.4439434060        4.4044753648       -2.2680731865
 H         7.2179901586        3.8219306741       -3.6088239289
 H         4.2362151021        1.3855826137        0.1530645403
 H         5.4398511970        1.3849307042        1.3743941748
 H         8.2282802120        0.3707644846       -1.0403638133
 H         6.4837036506       -0.0970065311       -0.7563260414
 H         7.2114310935        0.6611834224        0.6138597401
 H         7.8264598494        3.9996393954       -0.8363395701
 H         8.5735173616        2.6863132382        0.0579795036
 H         8.8593047693        2.8656626200       -1.7121627113
 H         4.0064049933        3.8657296975        1.6981738117
 H         2.7951382527        2.9022377486        1.1936652296
 H         0.3171130258        1.4449811273        4.8770821427
 H         0.1687189879        2.9838517839        5.7386134696
 H         2.6606507131        3.0513767691        6.2970152441
 H         4.0322481097        2.1822409388        5.5516096644
 H         2.3888672442        1.5305812452        5.5485967859
 H         3.0681242028        5.1601274847        4.8216047280
 H         4.4085190557        4.3899697300        3.9091240971
 H         2.8667214005        4.9518966647        3.0019810956
 H        -1.0247971876        2.6400845029        2.9642211544
 H        -1.7448531768        3.4268970477        4.3454003380
 H        -5.4134408063       -0.9918576001        2.1128604630
 H        -4.1983269969       -1.5546644971        1.0833231835
 H        -4.4771127992       -0.2288355647        4.6761121403
 H        -5.2804080525        1.3469062771        4.4504165627
 H        -3.9059061417        1.1732975781        5.3849941561
 H        -4.5446163072        2.0615282142        1.8614191210
 H        -4.2875780609        3.0293078041        3.2543150358
 H        -2.9183974526        2.9098992337        2.1717123347
 H        -2.8203909726       -2.0930573341        3.3966955922
 H        -4.5380200437       -1.9287545354        4.0950478425
 H        -0.9025546013       -5.9312186999        2.1898856518
 H        -1.8592332817       -4.5596367966        1.3894746504
 H        -2.8018771408       -5.0101698916        5.8512283494
 H        -4.2613513891       -4.2416599211        5.5322103370
 H        -2.6543301610       -3.2199492639        5.3922872893
 H        -3.5180601892       -6.4251767739        2.4143826136
 H        -2.8218169458       -6.6956275657        3.9994586612
 H        -4.4584849120       -5.9905209015        3.8017033325
 H         0.7259110522       -4.7130145198        0.7800307058
 H         0.8397907111       -3.8046046411        2.3908287471
 H         2.3935484114       -1.5869637163       -2.8287275007
 H         2.0063667675       -3.3090219771       -2.6244691394
 H         0.1281124282       -0.1425172228        0.4113638871
 H         1.7136605545        0.1044797418        0.0420648739
 H         1.4459088694       -0.6209663435        1.6970442331
 H         3.1807330623       -1.9088098792        0.0278292489
 H         2.6420558919       -3.0051942621        1.0879509550
 H         2.4811567269       -3.5174802489       -0.6275928742
 H         0.4165253396       -1.0596525585       -4.0911482573
 H         1.3532961073       -2.2251117210       -4.9563548854
 H        -3.9946893233       -3.8556214069       -5.3848112559
 H        -3.3113853897       -3.6402750209       -3.6747188621
 H         0.3946832931       -1.9847981076       -6.4918236559
 H        -1.1863216488       -2.0390700081       -7.3745438792
 H        -0.2139903778       -3.3472184274       -7.4349440132
 H        -1.8209754344       -4.9847291288       -6.5730719934
 H        -0.2411539278       -5.1014444203       -5.6344228848
 H        -1.9653127585       -5.2078497447       -4.9639851156
 H        -5.6146852432       -3.0917084937       -3.5853549822
 H        -5.2845365809       -1.8234782607       -4.9634954803
 H        -3.2205348885        2.1192342201       -3.4566183015
 H        -4.4354177688        3.0273205666       -2.5208671350
 H        -5.8129403152        1.7201904438       -3.9444391007
 H        -6.3738606017        0.1579926844       -4.4848721271
 H        -4.5307126821        0.5675189293       -4.8307864386
 H        -6.8583658494        0.9320104224       -1.5893161478
 H        -7.0307257673       -0.8355277789       -2.1114287891
 H        -6.0564334332       -0.3651172394       -0.8612251970
 H        -2.6123929776        3.9232974620       -1.4327175022
 H        -3.0030782009        2.4970453978       -0.4581757182
 H        -0.6739557927        6.6003565006       -2.0980748585
 H         0.2886225692        6.8702779206       -0.7004319085
 H         0.9714467415        5.9534276390       -2.0157236289
 H         1.8925509450        2.4179988993       -2.0845758335
 H         1.2954538511        2.7853412497       -0.4481776842
 H         1.9510451931        4.0646698704       -1.4238572916
 H        -0.4450814014        2.9173135144       -4.0454834972
 H        -1.1976334784        4.3656634489       -3.3943918447
 H         0.6234001817        4.2941430956       -3.8841249792
 Na       -2.1235453102       -0.6788745471       -0.6288629408
