155

 C         6.2696081626        3.8667917346       -2.9817595067
 C         6.3056230278        2.4626552568       -2.3630888166
 C         6.8480050811        2.2773260829       -0.9414457479
 C         5.7678507363        2.9093065805        0.1060582171
 C         4.6931785834        1.9976701568        0.7925098592
 C         6.9128046895        0.7422670376       -0.5765874343
 C         8.1652103782        2.9691005971       -0.6717243956
 O         5.9150520947        1.4584478227       -2.9411796276
 O         5.7032835482        4.1047100994        0.2745011958
 C         3.5773776518        2.7642810206        1.4634292275
 C         3.2738673118        2.2361282136        2.9954744151
 C         2.6055818415        3.0542014629        4.1238227736
 C         1.0485998705        3.1776729113        3.7491127905
 C         0.1250077362        2.5462789467        4.7772477565
 O         3.4615484980        1.0731357652        3.1739374689
 O         0.8086319794        3.5968878870        2.6381499603
 C         2.9754982663        2.3392601703        5.5370609296
 C         3.3803270963        4.3613523749        4.3025544978
 C        -1.3554605992        2.5921366961        4.2539388384
 C        -1.8773965710        1.1685611320        3.9168196355
 C        -3.3099936766        1.0560352268        3.3626934630
 C        -3.2394888304       -0.0675813881        2.2053080379
 C        -4.3133272201       -1.1395849961        2.3614134870
 C        -4.4255256355        0.8077792797        4.4518522648
 C        -3.7261779695        2.4117275355        2.6369664238
 O        -1.1668396041        0.1641092429        3.9930583494
 O        -2.2814678488        0.0790671911        1.4455373095
 C        -3.8844050849       -2.0618672395        3.4545320096
 C        -3.9196875179       -3.5563386487        2.9104170386
 C        -3.1476442360       -4.4809071411        3.8084454775
 C        -1.5618903585       -4.2355534959        3.4858338154
 C        -0.9746113145       -4.8588105270        2.1664834484
 O        -4.3635541948       -3.8915524285        1.8427451944
 O        -0.9673112824       -3.5502102327        4.2630260864
 C        -3.6325438394       -4.4085804516        5.2605358475
 C        -3.3858767081       -6.0281333490        3.2372231943
 C         0.2893113402       -4.1394252213        1.6361111883
 C         0.0037216263       -3.0451367098        0.6835180464
 C         1.0942932022       -2.0866180620       -0.0204268273
 C         0.6995689508       -1.9153282097       -1.5458905383
 C         1.7007930797       -2.2053257195       -2.7143783216
 C         0.9521022118       -0.7087054000        0.4704554415
 C         2.5413837315       -2.6465667457        0.2478874613
 O        -1.1467493598       -2.7129068099        0.5349101173
 O        -0.3985652041       -1.5692738919       -1.8038048966
 C         1.0046736377       -2.1071598616       -4.1438670748
 C        -0.2250864125       -3.1256391194       -4.3036516362
 C        -1.1403912000       -3.2204971653       -5.6612576519
 C        -2.4873381671       -2.4874116367       -5.4290676579
 C        -3.5662129871       -3.2671462073       -4.6698288005
 O        -0.4596501401       -3.8036583096       -3.3593211522
 O        -2.6955368636       -1.3417804241       -5.8050109045
 C        -0.3461018017       -2.5782724163       -6.8003069138
 C        -1.5544559012       -4.6985816913       -6.0071903648
 C        -4.6803815659       -2.2724575699       -4.2368091182
 C        -4.2696486242       -1.4607271234       -2.9837412370
 C        -5.0281983852       -0.0147833593       -2.7137321770
 C        -4.1524811417        0.8899099254       -1.8304054276
 C        -3.4467605799        2.0278036313       -2.5626995067
 C        -5.4736140675        0.6665953065       -4.0235675657
 C        -6.3028172223       -0.4051187889       -1.9868773193
 O        -3.6061247148       -1.9268003104       -2.1179747774
 O        -3.9759429114        0.5225539227       -0.6781936784
 C        -2.6588161427        2.9413039803       -1.6193836327
 C        -1.1480653933        2.4763032579       -1.6694914128
 C        -0.0875802500        3.6608574488       -1.8231855770
 C        -0.3810860502        4.9322485863       -0.8895310975
 C         0.3168708466        6.2106614938       -1.3049357680
 O        -0.9108760632        1.3164322626       -1.5540997511
 O        -1.2038514686        4.9785656626       -0.0278025293
 C         1.3437632905        2.9506384729       -1.5780285470
 C        -0.2224395965        4.0863347525       -3.3433485661
 H         6.1367915524        3.8900567291       -4.0106230204
 H         5.5408389875        4.5645059677       -2.5785446053
 H         7.2154776530        4.4097643703       -2.7911621819
 H         4.2071766992        1.2221514385        0.1271341692
 H         5.2280752827        1.4220973900        1.6351564244
 H         7.7483764786        0.3391063547       -1.1525986064
 H         6.0001991903        0.1955930070       -0.8903393858
 H         6.9845457068        0.5945575943        0.4991776522
 H         8.0390151701        4.0396366855       -0.8849181861
 H         8.5983594722        2.8733890470        0.3285423592
 H         8.8325393049        2.5394483463       -1.3926232617
 H         3.7238185596        3.8384887022        1.4099446704
 H         2.5673661979        2.6471635404        0.9261438709
 H         0.4204454649        1.4260711074        4.9337980536
 H         0.3808683039        3.0294238126        5.6956267028
 H         2.5355246093        2.9473630149        6.3124422363
 H         4.1456443942        2.4381801664        5.6127950546
 H         2.5546257137        1.3423704354        5.5646801285
 H         3.1612758228        4.8369575077        5.2537833208
 H         4.4068804336        4.1691769778        4.3148683088
 H         3.0829669436        5.0075922567        3.4990276985
 H        -1.3845199293        3.2558741067        3.4267063742
 H        -1.9956376085        2.9746386466        5.0057828796
 H        -5.3440147123       -0.7326478629        2.4882979949
 H        -4.4735550037       -1.6827563104        1.3430875914
 H        -4.1306547646        0.1295550383        5.2582998423
 H        -5.2825134109        0.4552142281        3.8101188755
 H        -4.7469632527        1.7620599038        5.0213178024
 H        -4.7836995247        2.3967667549        2.5760378927
 H        -3.5057301824        3.2816963613        3.2271193000
 H        -3.2387832223        2.5186661795        1.7186431684
 H        -2.8242807089       -1.9616284278        3.7473234864
 H        -4.5573947214       -1.9161131236        4.2791237834
 H        -0.7899396525       -5.8336264190        2.4802894441
 H        -1.8741721931       -4.9167971507        1.4208338255
 H        -3.2850589333       -5.1348548925        5.9506552245
 H        -4.6617802327       -4.4764660080        5.2587784648
 H        -3.2975985523       -3.5035961852        5.6558448002
 H        -3.8838943400       -5.8603497550        2.2787511834
 H        -2.4356485771       -6.5405638870        3.0225515469
 H        -4.1476567903       -6.5269964245        3.8576184531
 H         0.8772864919       -4.9807014777        1.2251199394
 H         0.8373562200       -3.6416913731        2.4413752702
 H         2.5909004136       -1.4927029517       -2.8069265247
 H         2.0660407152       -3.1767834744       -2.6539062670
 H         0.0618265513       -0.2026454698        0.2630801770
 H         1.7119617233       -0.0864570145       -0.0063630463
 H         1.1774805933       -0.8323675263        1.5194659397
 H         3.3560321183       -2.0375825846       -0.0763564197
 H         2.6983924693       -2.6464532882        1.3639127409
 H         2.6048664179       -3.6002461311       -0.1206644583
 H         0.5437343985       -1.1567510397       -4.1895437627
 H         1.7646766978       -2.0488277466       -4.9445297499
 H        -4.0592613759       -3.9480048261       -5.4207113910
 H        -3.1945155035       -3.7579372569       -3.7695907534
 H         0.0196046820       -1.6076405164       -6.4922667592
 H        -0.9507520380       -2.6396724778       -7.6617612014
 H         0.5308766151       -3.2451947207       -7.0487963111
 H        -2.5771175950       -4.6963198662       -6.3807299892
 H        -0.7933188341       -5.1979143725       -6.5444502023
 H        -1.7172160687       -5.3184442554       -5.1508629336
 H        -5.5197869434       -2.8883984446       -3.8651048382
 H        -4.9602331647       -1.7633246165       -5.0921223917
 H        -2.7891672253        1.5521850924       -3.3232693475
 H        -4.2792902064        2.6001712018       -3.0353278824
 H        -6.1800625152        1.4263521640       -3.7415234311
 H        -6.1417297990       -0.0072025979       -4.5537020711
 H        -4.5984402102        0.9614546042       -4.5812589825
 H        -6.6487260235        0.3101968780       -1.3484326526
 H        -7.0629305213       -0.7207827984       -2.7326214161
 H        -6.2654965973       -1.3033253751       -1.2632336129
 H        -2.6513545451        4.0347430469       -1.9223922231
 H        -2.9651992897        2.9241532281       -0.5776313447
 H        -0.2007426491        6.7358120979       -2.1146364589
 H         0.2702279344        6.9061327757       -0.4399080047
 H         1.3676489039        6.0610703639       -1.5159633041
 H         1.7171428695        2.6861815669       -2.5585897511
 H         1.2896137002        2.0548834970       -0.9469136618
 H         1.9972179104        3.6264830046       -1.0183320060
 H        -0.4742258781        3.2169624327       -3.9687682790
 H        -0.9850420763        4.8119316727       -3.4798459896
 H         0.7155442364        4.5039211474       -3.6709898277
 Na       -2.1345395038       -1.0049590446       -0.6428963673
