155

 C         6.2138832978        4.0553701534       -2.7990901912
 C         6.1469857309        2.6500967499       -2.2000054519
 C         6.6991036926        2.2977576695       -0.7436149017
 C         5.6394331727        2.9879502538        0.2400339337
 C         4.5730337930        2.0974876596        0.7820100843
 C         6.7972680166        0.7647617011       -0.6060388319
 C         8.0508072553        2.9450846524       -0.3612043765
 O         5.7360949561        1.7359319261       -2.8484518924
 O         5.6944779939        4.1812816621        0.4866261137
 C         3.5863238584        2.9206889667        1.6903669232
 C         3.3584714076        2.1588018801        2.9729846024
 C         2.7023559545        2.9695153080        4.1059855079
 C         1.1889198893        3.1305954860        3.8172549227
 C         0.1619514261        2.6603203338        4.9415033628
 O         3.5873144454        0.9389813549        3.0462506469
 O         0.7149889452        3.6771576040        2.8268524844
 C         2.9498033147        2.1329403545        5.4141059085
 C         3.1484960474        4.4395032612        4.1529948694
 C        -1.2562480801        2.7232509915        4.4741305605
 C        -1.7450984081        1.4575398404        3.7320761687
 C        -3.3353152368        1.3142838640        3.2637827345
 C        -3.3245180103        0.1309994593        2.2472184652
 C        -4.1857313417       -1.2215251109        2.2313978759
 C        -4.1193613830        0.9996533232        4.6192375540
 C        -3.8409946917        2.5533921662        2.5331950019
 O        -1.1433335432        0.4351384719        3.7975103135
 O        -2.5339575678        0.3659740865        1.3538294237
 C        -4.0437555724       -2.1363672775        3.5120760276
 C        -3.8999133070       -3.6468437004        2.8964712688
 C        -3.0878783207       -4.7438172450        3.6927354777
 C        -1.6118837252       -4.3324037719        3.5772988442
 C        -0.7230323814       -4.9464793069        2.3344182756
 O        -4.3171865856       -3.8267105098        1.7636979371
 O        -1.1350692208       -3.5093487540        4.3161871551
 C        -3.3698874387       -4.7360891521        5.2315779034
 C        -3.5764405273       -6.1539468759        3.2259674798
 C         0.3874094689       -4.0066306541        1.8984077073
 C        -0.0184898066       -3.0586524964        0.7425631705
 C         1.0237448579       -2.2846489286       -0.0602906852
 C         0.6663883264       -2.0627559012       -1.6517428110
 C         1.7065476279       -2.4973716713       -2.7100716812
 C         1.0137293390       -0.8106762857        0.6364368427
 C         2.4576869970       -2.7457031120        0.0370066778
 O        -1.1928582688       -2.9629990575        0.4924486775
 O        -0.4346776222       -1.5790766486       -1.9884955409
 C         1.0533437831       -2.3993937125       -4.1424042699
 C        -0.1612471715       -3.2476483590       -4.3684559513
 C        -0.9602752527       -3.2011384440       -5.7441753723
 C        -2.3126461446       -2.5113258703       -5.4093959770
 C        -3.3720001991       -3.2248714958       -4.6683570528
 O        -0.5994651598       -4.0453355209       -3.5523833209
 O        -2.4502613209       -1.3946368891       -5.8326443029
 C        -0.2995762686       -2.4223633776       -6.9519907709
 C        -1.0733500032       -4.6834396913       -6.0808369806
 C        -4.6350939058       -2.2539565772       -4.3776240280
 C        -4.3777341635       -1.4999880749       -3.0962619255
 C        -5.1388446625       -0.2206949329       -2.7529678363
 C        -4.2820841272        0.7262366971       -1.9471269565
 C        -3.5088368935        1.9255715508       -2.6735986945
 C        -5.5678796575        0.4203738617       -4.0132306310
 C        -6.3903941149       -0.7263773475       -1.9589687577
 O        -3.5504117996       -1.9139507805       -2.2795369573
 O        -4.2866197216        0.6480914164       -0.7493221466
 C        -2.7582250483        2.9211202791       -1.8024224043
 C        -1.2449497538        2.6049151564       -1.6420143300
 C        -0.1113683593        3.7541126981       -1.8565379429
 C        -0.2915757002        4.9325696273       -0.9327743271
 C         0.6849852650        6.0918914504       -1.0356379283
 O        -0.8364912848        1.4430972820       -1.5354061286
 O        -1.2160836418        5.0331443299       -0.1348333494
 C         1.2927756417        3.1311437628       -1.5569865838
 C        -0.2010622887        4.2569467489       -3.3353527138
 H         6.4922802688        4.1172917196       -3.8911901554
 H         5.2270482182        4.5398340572       -2.7593746424
 H         6.8637445939        4.7945483017       -2.2709287023
 H         4.0415879527        1.6486036615       -0.0168684723
 H         4.9437990389        1.3240164732        1.3853519725
 H         7.4347548611        0.4944518560       -1.3973046355
 H         5.8397819026        0.3261477513       -0.6991591750
 H         7.3576623712        0.5081734109        0.2829656893
 H         7.9639807613        4.0091798646       -0.1769528296
 H         8.3135171589        2.5512667820        0.6315053481
 H         8.8738125457        2.6113079607       -1.0285975238
 H         3.9718974978        3.9154499117        2.0353913016
 H         2.6203663365        3.1625457604        1.3235082212
 H         0.4154364914        1.6866930220        5.1680757472
 H         0.2798563361        3.1894287042        5.9348223169
 H         2.3669680201        2.6204682959        6.2627966232
 H         3.9156433675        2.2404005734        5.5977733062
 H         2.5761814007        1.1111587099        5.2109549626
 H         2.5448311579        4.9262545901        4.8714903401
 H         4.2066517277        4.5823629609        4.4276819988
 H         2.8762343780        4.8778248962        3.2024013024
 H        -1.3473088120        3.7359237914        3.9802408543
 H        -1.9285641138        2.7124194262        5.3990509070
 H        -5.1493408471       -0.8010039949        2.0248242512
 H        -3.9923375532       -1.7193368359        1.3412359210
 H        -3.5029062149        0.4204727989        5.3144373629
 H        -5.0567020302        0.5300535814        4.3798462647
 H        -4.2616015040        1.9028545796        5.1576361215
 H        -4.8748132050        2.3424392182        2.1170012222
 H        -3.8746789502        3.5163359577        3.0776591094
 H        -3.0979384096        2.6029750785        1.6539349198
 H        -3.2040910849       -1.7955316900        4.1060289195
 H        -4.9773211836       -2.2402786718        4.0816107033
 H        -0.3474827642       -5.9784403832        2.7407461927
 H        -1.4535668318       -5.2228914858        1.6443348645
 H        -2.8498393106       -5.5317915252        5.8303193561
 H        -4.5315703657       -4.7403800806        5.5018177416
 H        -2.8243763992       -3.8520229724        5.6651214950
 H        -3.4624469277       -6.2535098790        2.1688942667
 H        -2.9039142315       -6.8514520614        3.7581013908
 H        -4.6067724958       -6.3087696471        3.5386580754
 H         1.2302961875       -4.6855815156        1.7012410439
 H         0.6864156900       -3.4113744755        2.7849209092
 H         2.4915908448       -1.8072530648       -2.7528172542
 H         2.1079942365       -3.5658219943       -2.5971343967
 H        -0.0349629576       -0.4349119254        0.4004482179
 H         1.6715704224       -0.1534624223        0.0840008342
 H         1.1835245622       -0.8286499052        1.7113540683
 H         3.0172787137       -2.2285703192       -0.7771281886
 H         2.8439145826       -2.3085740807        0.9383170640
 H         2.7420057104       -3.8866784174       -0.0221326708
 H         0.7105300069       -1.3300368457       -4.3796644446
 H         1.7894948645       -2.5901189412       -4.9305551947
 H        -3.7384528494       -4.0750337737       -5.1895814831
 H        -2.8278538454       -3.4447075686       -3.7384658886
 H        -0.6942704041       -1.3900426038       -6.9099941207
 H        -0.5265191535       -3.0041940235       -7.9101175508
 H         0.7657077970       -2.2904249946       -6.7128613011
 H        -1.6337184568       -4.8886293187       -6.9925769290
 H        -0.0054064804       -4.9438678586       -6.0039189499
 H        -1.5591906261       -5.3476689917       -5.3582794360
 H        -5.4978342285       -2.9624913219       -4.4172602643
 H        -4.6980638903       -1.5910369748       -5.3248484485
 H        -2.7401140513        1.3851556449       -3.2224343631
 H        -4.1919240470        2.4466869197       -3.3285420512
 H        -5.9628252113        1.3850681942       -3.9225520479
 H        -6.2836988774       -0.2355903254       -4.4141065656
 H        -4.7008183328        0.3751400165       -4.6131863161
 H        -7.1432149880        0.0695871892       -1.6529723669
 H        -6.8248641887       -1.4987917484       -2.5256889534
 H        -6.1702641784       -1.1344071726       -1.0238575292
 H        -2.8615482443        3.9389232883       -2.0452066232
 H        -3.0616184280        2.9049590902       -0.7526769590
 H         0.3298843506        6.6752148696       -1.9037188372
 H         0.5952923755        6.7395805895       -0.1882765182
 H         1.7616080962        5.7933131488       -1.1471488659
 H         1.5276185400        2.5106166213       -2.4579298519
 H         1.2509595994        2.4771877565       -0.6899899094
 H         2.0416652342        3.8620056467       -1.2405612200
 H         0.2645089496        3.4526948794       -3.8556191457
 H        -1.1944552800        4.4552273298       -3.7950141300
 H         0.2964852605        5.2449305002       -3.4494614369
 Na       -2.1999655333       -0.9346318598       -0.5449909417
