155

 C         6.2569381173        4.2727235014       -2.3306318380
 C         6.1484909033        2.8336434839       -2.0835046110
 C         6.6991634562        2.3264797842       -0.6477233781
 C         5.5710555754        3.0283914993        0.2422490832
 C         4.2551624834        2.3105484936        0.5597111007
 C         6.7256033804        0.8103210344       -0.5345581314
 C         8.1123805411        3.0186310997       -0.4474166738
 O         5.4660222728        2.0607340626       -2.8054462205
 O         5.7355649485        4.1816713897        0.5806458830
 C         3.5560206053        2.9811480171        1.7552560713
 C         3.2705035158        2.1022665541        2.9737584893
 C         2.6792668149        2.8757981643        4.2533890810
 C         1.0504264874        3.0423152276        4.0582504490
 C         0.0074537207        2.7688310754        5.1237804982
 O         3.6175179959        0.9544821893        3.0467279532
 O         0.7248063451        3.4801210637        2.9739082914
 C         3.0648034809        2.2020270553        5.5720174166
 C         3.1250111334        4.3647933727        4.3421604502
 C        -1.4407442013        2.9255374050        4.4988964423
 C        -1.7883052957        1.6020805249        3.7550939076
 C        -3.2703093113        1.3587375507        3.3925093963
 C        -3.2450926838        0.2369782551        2.2433384793
 C        -4.1819752430       -1.0598639900        2.3944771898
 C        -4.1432874801        1.1644283396        4.7194660532
 C        -3.8502208447        2.6611647089        2.6981659459
 O        -0.8870036904        0.8357786480        3.5559809506
 O        -2.5419358261        0.3849580517        1.2575225210
 C        -3.7728528996       -2.2164606240        3.3552502346
 C        -3.7864690456       -3.6333941664        2.7889144378
 C        -3.0284035641       -4.8512808160        3.6647690687
 C        -1.5624099073       -4.3560347621        3.4871066152
 C        -0.6162441349       -4.9848208515        2.4228528783
 O        -4.3108862503       -3.9783214432        1.7680748260
 O        -1.1213741034       -3.4370088346        4.1861569862
 C        -3.4087011002       -4.7083574784        5.1810375974
 C        -3.4282373856       -6.1961317782        3.0796064916
 C         0.3008503449       -3.8481847925        1.9212089349
 C        -0.1520677396       -3.0452902303        0.7713937913
 C         0.9626846264       -2.3258781610       -0.0786159062
 C         0.5796285734       -2.1878061813       -1.5936887855
 C         1.4664079429       -2.8751612279       -2.6555570402
 C         1.0020970541       -0.8687259254        0.5504518387
 C         2.3767620986       -3.0220982799        0.1205139635
 O        -1.3321371516       -2.9548437632        0.3709873214
 O        -0.3786113209       -1.5283300989       -1.8826894147
 C         1.0752662937       -2.5676378860       -4.1348952113
 C        -0.1402491920       -3.4255835465       -4.4861858195
 C        -0.7284302067       -3.2641856832       -5.9234286352
 C        -2.0964802391       -2.5865122117       -5.5765573361
 C        -3.2510194519       -3.3894550183       -4.8378201802
 O        -0.5662649825       -4.1635219962       -3.5955458819
 O        -2.2773563728       -1.3862678632       -5.7298604981
 C         0.2078973890       -2.4357310954       -6.7939370328
 C        -0.8309868009       -4.6842508475       -6.5235175390
 C        -4.4351650581       -2.5277927118       -4.3460452518
 C        -4.2594302030       -1.5226174864       -3.1359317545
 C        -5.2280598480       -0.2664145587       -2.8861907566
 C        -4.4745152795        0.8978848874       -2.1100918054
 C        -3.4788032313        1.8020809411       -2.8399405170
 C        -6.0020060490        0.1665574924       -4.1714228629
 C        -6.3674291293       -0.7675228562       -1.9710879519
 O        -3.4025355840       -1.7799200822       -2.3087752877
 O        -4.6318755457        0.9097610111       -0.8934471714
 C        -2.8032939143        2.8249121517       -1.8188302877
 C        -1.2442487002        2.5070785662       -1.6307305634
 C        -0.1138032176        3.6985201454       -1.9180573596
 C        -0.3431915942        4.9030199733       -0.8948376781
 C         0.7254875960        5.9001566247       -0.6379887313
 O        -0.8403851670        1.4019642983       -1.2799911082
 O        -1.3779252578        4.9895233656       -0.2568104732
 C         1.1753725631        3.0837409697       -1.7086656494
 C        -0.1997447891        4.2580847996       -3.3696573287
 H         7.0325259453        4.3944798394       -3.0496402692
 H         5.3962325291        4.6836133219       -2.8577645817
 H         6.5034742020        4.8662704376       -1.5564212153
 H         3.5429377607        2.4433968042       -0.2914504205
 H         4.3299206852        1.2173928624        0.7943903476
 H         7.6271361554        0.2700420789       -0.9889190751
 H         5.6760305587        0.4965693029       -0.8509333454
 H         6.9525275676        0.6638882123        0.5584680510
 H         8.0988025680        4.0852649833       -0.2660830788
 H         8.5097684934        2.6144654009        0.4722523644
 H         8.7835224620        2.6617527967       -1.1847596387
 H         4.1330363424        3.7823290440        2.1155864408
 H         2.5569303769        3.4103981936        1.4377877694
 H         0.3114154382        1.7504413507        5.5640055856
 H         0.1370986988        3.4068646858        5.9655545977
 H         2.9308940110        2.8956330905        6.2982168543
 H         4.1652759374        1.8525790081        5.5601276998
 H         2.3893181307        1.3613142372        5.6507748628
 H         2.8597920469        4.7410207278        5.3973278221
 H         4.2259962426        4.3541974090        4.2771346783
 H         2.6642949408        5.0608907416        3.6096704188
 H        -1.3392886753        3.7970876116        3.8516849624
 H        -2.1618344998        3.1165956722        5.2596014486
 H        -5.1907071813       -0.6221920265        2.6115247221
 H        -4.2383043477       -1.3928069414        1.3023250195
 H        -3.9879288538        0.1110865562        5.0351601482
 H        -5.1576165547        1.2846530091        4.4603415428
 H        -3.7951621897        1.8215515631        5.4914340386
 H        -4.7417724290        2.4795839419        2.1115444155
 H        -4.0781578646        3.3563055902        3.5160483361
 H        -3.1168660879        3.0850927630        2.0674393844
 H        -2.7317664113       -2.0474184986        3.7244340623
 H        -4.4536941034       -2.2915463036        4.2245536998
 H        -0.1774095760       -5.7607123888        2.9569379206
 H        -1.2419242841       -5.6677255358        1.7789754925
 H        -2.6640219366       -5.3714535437        5.6270970351
 H        -4.3228963961       -5.0500685399        5.4571536608
 H        -3.1192103431       -3.8033755765        5.6969239551
 H        -2.6951414522       -6.3311643318        2.2243664026
 H        -3.4106278985       -6.9471395294        3.8391787438
 H        -4.4392116973       -6.1537404292        2.6977084759
 H         1.2784970927       -4.2959380953        1.7282751784
 H         0.4901640264       -3.2188653281        2.8153616645
 H         2.5621267510       -2.5926315010       -2.5912171957
 H         1.3434070404       -3.9076843340       -2.5534981575
 H         0.0998365071       -0.2822886260        0.5159743164
 H         1.8940754555       -0.3906322696        0.0335369216
 H         1.3059524781       -1.0133450292        1.6059208129
 H         3.1006887664       -2.3907645055       -0.3946825436
 H         2.6846353197       -3.4336749074        1.1031361762
 H         2.3530399412       -3.7908706759       -0.5586452304
 H         0.8663934319       -1.5410431998       -4.2256625224
 H         1.8990184349       -2.7715881589       -4.8279480951
 H        -3.6944840322       -3.9980461089       -5.7047504941
 H        -2.8764790287       -3.9621619128       -3.9697273461
 H         0.1647213237       -1.3546248907       -6.7055396276
 H        -0.1117602423       -2.7161682412       -7.7493240511
 H         1.1889820767       -2.7512156536       -6.5207964607
 H        -1.2018289718       -4.6325079865       -7.5587793987
 H         0.0874924011       -5.2492883197       -6.3849916014
 H        -1.6248351592       -5.2398287797       -5.9562378541
 H        -5.0977766029       -3.3398569736       -4.0894843735
 H        -4.9155242495       -2.1117832125       -5.1710179119
 H        -2.7809043642        1.1310595329       -3.3585381303
 H        -4.0679623848        2.4325093595       -3.5237426143
 H        -6.7799926521        0.9147072312       -3.7480910224
 H        -6.4839540216       -0.7927693609       -4.5972853544
 H        -5.3480969569        0.6846342284       -4.9713558427
 H        -7.3218770890       -0.3032236220       -2.1916797396
 H        -6.5496299972       -1.8592676975       -2.1486936496
 H        -6.2440231047       -0.6327957537       -0.8769742331
 H        -2.9035326842        3.8717659277       -2.2474431954
 H        -3.3288121851        2.9524762742       -0.8427763606
 H         0.7388376141        6.6606323094       -1.4008841553
 H         0.4659370098        6.3569413647        0.3330824898
 H         1.6735456869        5.4919969246       -0.5207970021
 H         1.0326166198        2.0682338276       -1.5751842883
 H         1.7392054460        3.5047200053       -0.8785192353
 H         1.8112819747        3.2739008785       -2.5587795569
 H         0.0890101814        3.4576881894       -4.0933880238
 H        -1.2015790379        4.6053334453       -3.5696517553
 H         0.3333338344        5.1913467139       -3.4561793138
 Na       -2.1375789230       -0.7749646268       -0.6860401746
