155

 C         6.4211427894        4.5515134021       -2.3912663833
 C         5.9499638755        3.2398148412       -1.9232914532
 C         6.4306521493        2.6577720384       -0.5861117398
 C         5.5298144152        3.2018475184        0.5954329541
 C         4.2913605500        2.3773339465        0.8544874318
 C         6.2621959299        1.0592964662       -0.6177766807
 C         7.8486311930        2.9108934766       -0.1544402808
 O         5.1318757480        2.6074392678       -2.6355987809
 O         5.8901704034        4.1709769112        1.1909426418
 C         3.3997670937        3.1316459740        1.8829152737
 C         3.2841581448        2.3149270492        3.1201843867
 C         2.5804065091        2.9227288662        4.3560227236
 C         0.9871112030        3.1335288666        4.0101875574
 C        -0.0027155279        2.9637213914        5.1682388096
 O         3.5602778633        1.1050424808        3.1338713939
 O         0.6038946093        3.4093193387        2.8861281277
 C         2.8036277809        1.9067616119        5.5785109638
 C         3.1199211197        4.2386466897        4.7649885825
 C        -1.4414968990        2.6806082881        4.8456346019
 C        -1.6115849522        1.6504351452        3.8229916946
 C        -3.2247184395        1.4882177392        3.4669264305
 C        -3.2686008211        0.3331476176        2.3415816932
 C        -4.1279762258       -0.8927265480        2.3342539256
 C        -3.8634639917        1.1544148158        4.8537963550
 C        -3.8646766733        2.6410862858        2.7696915902
 O        -0.7636279139        0.9478839235        3.3982583965
 O        -2.5916107653        0.4699931441        1.3464637046
 C        -3.1900813616       -2.0447403451        2.8666676500
 C        -3.7262417976       -3.4745015631        2.6615526816
 C        -3.1505908846       -4.6214090818        3.6456227132
 C        -1.5624570037       -4.3599208750        3.5087168505
 C        -0.9738867389       -4.8537496155        2.1821655721
 O        -4.5794972863       -3.7416562413        1.8318322642
 O        -0.9502741977       -3.7755466100        4.3910251737
 C        -3.6607030826       -4.3899074279        5.0604919194
 C        -3.6541644188       -5.9632034985        2.9045082946
 C         0.3217617095       -4.1613159658        1.7376390272
 C         0.0785343519       -2.9595967635        0.8297911149
 C         1.2218934689       -2.1983986399        0.0323132723
 C         0.8283964742       -2.2367662807       -1.5451377411
 C         1.4907258199       -3.2231304935       -2.4690293480
 C         1.1913895864       -0.7140982852        0.5073991821
 C         2.7127178380       -2.7735609337        0.2763717682
 O        -1.0700208608       -2.4325054109        0.7927254139
 O        -0.1110241857       -1.5696757048       -1.8990124633
 C         1.2929289711       -2.9811170334       -3.9983042760
 C         0.0555189740       -3.7471904811       -4.6186587331
 C        -0.6661190946       -3.2168523480       -5.8874469951
 C        -1.9289159519       -2.4335522958       -5.5110326189
 C        -3.0946641838       -3.2432023566       -4.8617587336
 O        -0.3887901572       -4.7884385108       -4.1173352550
 O        -2.0916932308       -1.2482833650       -5.6920840004
 C         0.2494723779       -2.3620186411       -6.7462547342
 C        -1.2228574694       -4.5112928247       -6.7490191004
 C        -4.1639963511       -2.3134216469       -4.5866839430
 C        -3.9615881006       -1.5106128881       -3.3852972474
 C        -5.0932356542       -0.5223236974       -3.0098177350
 C        -4.4688938634        0.6514476598       -2.2857315947
 C        -3.2663422005        1.2647428198       -3.0011466502
 C        -5.8507274078        0.0464147155       -4.2724287330
 C        -6.0389358499       -1.3200807874       -2.0944232136
 O        -2.8803794809       -1.6350241149       -2.7739289198
 O        -4.9784133717        1.1680161797       -1.3283601358
 C        -2.8175959158        2.5681892303       -2.2946653814
 C        -1.3554035416        2.4231541095       -1.8547648461
 C        -0.3697043601        3.4929303929       -1.9527105869
 C        -0.7709850682        4.4990171062       -0.8046498560
 C         0.4397632813        5.1864618700       -0.1573610458
 O        -1.1626429284        1.3542107233       -1.2165303933
 O        -1.9327772990        4.6917266003       -0.4396845326
 C         1.0894728866        2.8567243489       -1.7634553019
 C        -0.5134103108        4.2247107283       -3.4029919510
 H         7.3344891004        4.8998741853       -1.8967755648
 H         6.6935501427        4.5230481139       -3.4708155462
 H         5.7692239632        5.3361174236       -2.2362705731
 H         3.7981144166        2.0982783865       -0.0421164073
 H         4.6900309291        1.5133763467        1.3286227476
 H         6.8177747123        0.6624132781       -1.4953562273
 H         5.2478635327        0.8781532798       -0.9190192451
 H         6.6254563070        0.6591482282        0.3194340248
 H         7.9683447414        3.9922377160        0.0624280407
 H         8.1952441885        2.3045320979        0.6896172788
 H         8.4686555582        2.7181507599       -1.0394513283
 H         3.8550201253        4.0406568345        2.0262459431
 H         2.3677246924        3.2332688805        1.4952471993
 H         0.3171934005        2.1733054510        5.9169768590
 H         0.0473959664        3.8595676042        5.7422755291
 H         2.2493327932        2.3090024458        6.3988683653
 H         3.7937434176        1.7326119649        5.8133635351
 H         2.3576991522        0.9680226150        5.2479125386
 H         2.6431052448        4.6014599454        5.7051130065
 H         4.1892594397        4.1071594388        4.9095809067
 H         3.0607144200        4.9693884498        3.9789194163
 H        -2.0015069853        3.5235417299        4.3611363771
 H        -1.8881457822        2.2880267220        5.7757888027
 H        -4.8888230331       -0.8111113370        3.1243499547
 H        -4.4420069789       -1.0952034026        1.3177187327
 H        -3.2615040313        0.4169405533        5.4210973945
 H        -4.7961457383        0.7563622316        4.6969009064
 H        -4.0056884302        2.0524124187        5.2798643211
 H        -4.9111257769        2.4294504166        2.4299533753
 H        -3.8739413651        3.5332439116        3.4804386274
 H        -3.3566959681        2.9105165365        1.8234387621
 H        -2.1568297574       -2.1097948923        2.4617789740
 H        -3.0438382631       -1.8189126820        3.9454946840
 H        -0.9290108831       -5.8868678357        2.3317869512
 H        -1.7855536991       -4.9942833697        1.4543637412
 H        -3.4801895236       -5.2644740538        5.7058948235
 H        -4.6879518723       -3.9631738607        5.1740655565
 H        -3.0576155966       -3.4824365758        5.4457755582
 H        -4.3212098795       -5.4667590566        2.1061186033
 H        -3.0407950854       -6.7855129610        2.6262912006
 H        -4.3874164168       -6.3182614776        3.5887242696
 H         1.0098329767       -4.8699713082        1.2747940502
 H         1.0139209581       -3.7431190965        2.4878481351
 H         2.6126763843       -3.1610380865       -2.2757018082
 H         1.1792224480       -4.2206399111       -2.2845547480
 H         0.1578078187       -0.3737823369        0.5120034553
 H         2.0170710972       -0.1713355748        0.0002254560
 H         1.4869559270       -0.6640400802        1.5667465884
 H         3.3589962185       -1.8904285242       -0.0211049115
 H         2.7652820013       -3.1008462229        1.2950647802
 H         3.0283193181       -3.6370431771       -0.3202523781
 H         1.3996527535       -1.9388268178       -4.2493156945
 H         2.1256333211       -3.5506846306       -4.4869545465
 H        -3.4271626568       -3.9716027824       -5.6432104960
 H        -2.6649642348       -3.6288446988       -3.9114823971
 H         0.6693205482       -1.4824421964       -6.1651738553
 H        -0.3686355001       -1.9045473956       -7.5216929370
 H         1.0054836124       -3.0734216931       -6.9870637912
 H        -1.9461900451       -4.3414283232       -7.4848325387
 H        -0.4858068383       -4.9603986212       -7.3960171177
 H        -1.5257660530       -5.1914723680       -5.8900711678
 H        -5.1131514435       -2.8259980552       -4.6634950376
 H        -4.2901282501       -1.7379504097       -5.4671427871
 H        -2.4494954112        0.5374101360       -3.1311579303
 H        -3.6740810572        1.4856690551       -3.9836080592
 H        -6.4862997355        0.8965370575       -3.9396617465
 H        -6.4382526225       -0.7036837091       -4.8441113903
 H        -5.1502721856        0.5765415153       -4.9622900347
 H        -6.5798102810       -0.5781747977       -1.4140296641
 H        -6.8700895362       -1.7559975828       -2.6102341394
 H        -5.5716161530       -2.0656616345       -1.5629485660
 H        -2.9268275549        3.5011294063       -2.8750437702
 H        -3.4329059508        2.7883470796       -1.4062461432
 H         1.2264527650        5.3769416164       -0.8995020331
 H         0.0856442714        6.1142732516        0.3401321986
 H         0.8515807236        4.5273031447        0.5582382937
 H         1.5530076026        2.9823772743       -0.8416119359
 H         1.7177269086        3.4139842893       -2.5225215392
 H         1.0578982340        1.7781021155       -2.0016901319
 H        -0.6679434582        3.5078098618       -4.2661030678
 H        -1.4296510473        4.8707166044       -3.3109527850
 H         0.3918552611        4.7826663089       -3.6611030289
 Na       -2.0910526023       -0.8531336579       -0.6683666165
