155

 C         5.7893315112        6.3151414329       -0.7252702004
 C         5.0516556029        4.9915831185       -0.7864202079
 C         5.7324014553        3.6158127751       -0.3774414846
 C         5.7584906164        3.4479494282        1.2100095973
 C         4.4032436873        3.0542057767        1.8665652769
 C         5.0686951118        2.3914472037       -0.9608657914
 C         7.2252532747        3.5876267264       -0.9347019805
 O         3.8234798821        4.9889255536       -0.9335285250
 O         6.7712270843        3.5232067635        1.8414542187
 C         4.3297812240        3.0454117722        3.3637229061
 C         2.9979042323        2.4822022389        3.8811730324
 C         2.4203601240        2.7859025335        5.3256854633
 C         0.9094181572        3.0240710963        5.0475116728
 C         0.0101091314        1.7790225033        4.6387125857
 O         2.3736146865        1.6648160633        3.2319575576
 O         0.4346198461        4.1339247363        5.0120392084
 C         2.7420911235        1.6244067966        6.3475536070
 C         2.9532456413        4.1519888853        5.8548069048
 C        -1.1596615896        2.2944689836        3.6822642949
 C        -2.5082886804        1.5620848699        3.8823143584
 C        -3.6476702287        1.7345210384        2.7196963533
 C        -3.1731705470        0.5923235287        1.7836527899
 C        -3.7030370145       -0.8673599201        1.8068774401
 C        -4.9829021518        1.5565107221        3.4451912263
 C        -3.6544175045        3.0802698670        1.9928293095
 O        -2.7994199697        0.7865905478        4.7100863526
 O        -2.2515737357        0.8885006261        1.0393847012
 C        -3.4124155475       -1.8378176700        2.9618087077
 C        -3.8708311227       -3.2524290764        2.5879097721
 C        -3.2454808410       -4.4779140420        3.4604707084
 C        -1.9329109454       -4.6286713338        2.5534049959
 C        -1.9413107910       -5.4169294069        1.2911494219
 O        -4.4447271385       -3.4660512713        1.5213609547
 O        -1.0309023275       -3.8117685355        2.8187765496
 C        -2.9032918004       -4.2338040166        4.9253768497
 C        -4.1995687647       -5.7207816551        3.2020441362
 C        -0.5618375550       -5.2200291991        0.5391713955
 C        -0.4052264084       -3.7035185260       -0.0694834666
 C         1.0822955982       -3.1150608102        0.0003817051
 C         1.4017082845       -2.1123384784       -1.1636278098
 C         2.3894572341       -2.5319192007       -2.2956321277
 C         1.1308830553       -2.3170270173        1.2777614147
 C         2.1446914540       -4.3027326327        0.0910728548
 O        -1.4203283454       -3.0243313894       -0.2266378804
 O         0.7604404770       -1.0768690418       -1.2696637581
 C         1.8520871373       -2.1976984691       -3.6497931853
 C         0.8794682628       -3.2958026390       -4.0901033073
 C         0.3032909455       -3.4531821799       -5.5750542034
 C        -1.2601739408       -3.1854577132       -5.6285931721
 C        -2.2279865557       -4.1452169042       -4.8174139806
 O         0.5103832355       -4.0738128495       -3.2254212267
 O        -1.7058582076       -2.2163968324       -6.1564332483
 C         0.9530719903       -2.4839583231       -6.6158534653
 C         0.5086068283       -4.9118631234       -6.0946473190
 C        -3.5070351463       -3.4117534192       -4.4532303278
 C        -3.3185416598       -2.1949893509       -3.5380834319
 C        -4.5216503629       -1.2558662001       -3.4651271556
 C        -3.9614272811        0.0541555956       -2.6529104359
 C        -3.3078632362        1.1428475525       -3.5302592575
 C        -5.1782061654       -0.7308574165       -4.7707500729
 C        -5.5822172440       -1.9400207043       -2.5720304372
 O        -2.2760342726       -2.0517973822       -2.9397605598
 O        -4.0311341253        0.0280884677       -1.4238298336
 C        -2.7724191996        2.4167522639       -2.8373677791
 C        -1.2798689327        2.3984427110       -2.4818563531
 C        -0.7265291758        3.8959872075       -2.4285845404
 C        -1.4050574860        4.5547031414       -1.1432845924
 C        -0.7072703375        5.7551409837       -0.5349386739
 O        -0.7224294001        1.4348551043       -2.0216160271
 O        -2.4651177813        4.1142472796       -0.6546861923
 C         0.7867589678        3.7650064442       -2.3857480300
 C        -1.1852047045        4.8417951059       -3.6856654544
 H         5.9874617270        6.7555051813       -1.6943342398
 H         5.1998166054        7.0215927509       -0.0922775528
 H         6.7426595846        6.2288367483       -0.3280376275
 H         3.6245292764        3.6880991174        1.5519504243
 H         4.1395742998        2.1168485915        1.4598924025
 H         5.0144454554        2.4924141103       -2.0084662891
 H         4.1340694375        2.1901212380       -0.5768333854
 H         5.5700967256        1.5349271754       -0.7272307695
 H         7.9820089950        4.2330887552       -0.4870185219
 H         7.5835481156        2.5644709097       -0.9233861325
 H         7.2070218979        3.9762365593       -1.9598896620
 H         5.1461806561        2.4708431709        3.6841930752
 H         4.5651056706        4.0277005520        3.7383485403
 H         0.6548666036        1.0699214145        4.1473364191
 H        -0.4088709040        1.1936021902        5.5421321147
 H         2.7319978172        1.8655656299        7.4480763763
 H         3.6396818756        1.0886320094        6.1777867354
 H         1.8507171250        0.8517205077        6.2970204846
 H         2.2124757294        4.4446025750        6.5513960922
 H         3.9416951604        4.2423048271        6.2803189661
 H         2.8912764237        4.8605959972        5.0150718809
 H        -1.0239778010        2.4004864356        2.6283972314
 H        -1.3234420943        3.2962380167        4.0283777638
 H        -4.8205832815       -0.7982602134        1.6613809816
 H        -3.1937094288       -1.3238454906        0.8528141674
 H        -5.0221983115        0.7607407723        4.2454512648
 H        -5.7027421529        1.4075713504        2.7437635437
 H        -5.1544643717        2.4561661048        3.9030607495
 H        -4.3561170692        3.0259148622        1.1554585594
 H        -3.9818690431        3.9537544522        2.5214630141
 H        -2.7221249304        3.3267152440        1.5559231345
 H        -2.4397889248       -1.6233822757        3.3703774026
 H        -4.0664151606       -1.4682024699        3.7457222907
 H        -1.9536981050       -6.5610003478        1.5724701084
 H        -2.7986657393       -5.1692061490        0.7270923093
 H        -2.6712621819       -5.2150920839        5.4079891041
 H        -3.6893648518       -3.7102536371        5.4708686127
 H        -2.0882024390       -3.4533594304        5.0535192783
 H        -4.7725969839       -6.1193602858        4.0479541783
 H        -4.9836529768       -5.4734144781        2.4904202652
 H        -3.6905881721       -6.6004464893        2.7898340668
 H        -0.3683860685       -5.9128976655       -0.2666946514
 H         0.2253718663       -5.2837754029        1.3335654147
 H         3.2200513621       -1.8981336161       -2.1697471257
 H         2.6241776118       -3.6506281573       -2.2250137662
 H         0.3520836329       -1.6141154559        1.3311618123
 H         2.1452474217       -2.0238339713        1.4904213634
 H         0.8797169736       -3.1061152392        2.0268399279
 H         3.1613863544       -4.1525991775       -0.1808679619
 H         2.3537792449       -4.5688882793        1.2052361002
 H         1.8618622335       -5.1929137397       -0.4735830244
 H         1.2600501163       -1.2669692721       -3.5353474542
 H         2.5820894441       -1.9593891158       -4.3586110134
 H        -2.4526056431       -5.0427479712       -5.4445342265
 H        -1.7591689130       -4.5278666483       -3.8826756170
 H         0.6577212240       -1.4725770015       -6.2449669445
 H         0.6237782280       -2.6746555917       -7.6486890581
 H         2.1007603401       -2.5800562974       -6.7311414241
 H         0.1063139558       -4.9017527377       -7.1372665222
 H         1.5138744449       -5.2976760666       -6.2904533176
 H         0.1463085006       -5.6835621024       -5.4054447182
 H        -4.0990460760       -4.0273267917       -3.8270822327
 H        -4.0158190934       -3.1742728453       -5.4158928039
 H        -2.4548550462        0.7391135379       -4.1061099530
 H        -3.9688445355        1.5093491992       -4.2657833024
 H        -5.5272945449        0.2223549895       -4.4619882662
 H        -5.9668129667       -1.3478317069       -5.1401432316
 H        -4.4403728502       -0.7052724777       -5.5282038132
 H        -6.5858977955       -1.4577117244       -2.7630694486
 H        -5.7011597848       -2.9934066097       -2.7961746469
 H        -5.1864851281       -1.8718602428       -1.6311817543
 H        -2.9677121642        3.1547614670       -3.5655669389
 H        -3.2542986167        2.5182957842       -1.7931656432
 H        -1.1149026090        6.6069639601       -1.1244471167
 H        -1.0134131204        5.8955700217        0.5269005316
 H         0.4063558912        5.7464831277       -0.7130006387
 H         1.3040213144        4.7413281648       -2.4990553766
 H         1.1227590164        2.9567244752       -3.0691944632
 H         1.1413256924        3.4990849408       -1.3562566025
 H        -1.4274415705        4.2993748112       -4.5539910366
 H        -2.0752834443        5.3858860298       -3.4795988980
 H        -0.3776871667        5.5295248295       -3.9026685186
 Na       -1.6691137314       -0.5967782705       -0.7181468882
