155

 C         5.2144254416        6.3390047133        0.6156189902
 C         4.7366870554        5.2352234904       -0.3013769799
 C         5.5433034204        3.8243219624       -0.2413859194
 C         5.4196361745        3.5223938361        1.2784365958
 C         4.1037982862        2.8499716025        1.7615931420
 C         4.8089061503        2.8572626732       -1.2101990382
 C         6.9171035072        4.2092328484       -0.7664332297
 O         3.8415520870        5.3883888747       -1.0522448765
 O         6.1808351569        4.0731026327        2.0443567493
 C         3.6363098339        3.4246357772        3.2045542504
 C         3.0206639454        2.2874140074        4.0333419218
 C         2.4408969545        2.6356402049        5.4451922088
 C         0.7647250690        2.7604548238        5.1973694645
 C        -0.0105879759        1.5964834353        4.7367073957
 O         2.9976154850        1.1478614594        3.6206837784
 O         0.2295535563        3.8508965101        5.3081000089
 C         2.6628531923        1.5435038143        6.5305393402
 C         2.9513005703        4.0185952259        5.9914317997
 C        -1.0741281277        2.1215989765        3.8076839341
 C        -2.4530325445        1.3486618558        3.9198726923
 C        -3.5538172337        1.5246155065        2.7526323121
 C        -3.2073140723        0.5240506806        1.5584140729
 C        -3.9015536581       -0.8457657684        1.3924258520
 C        -5.0094919413        1.1796921635        3.4096443420
 C        -3.5930211806        2.9703153468        2.2287640099
 O        -2.6598017425        0.8762698288        4.9952961811
 O        -2.3391016413        0.9346612693        0.7815734618
 C        -3.2238841823       -1.9432100391        2.3024568076
 C        -3.9932044444       -3.2714092272        2.3489630425
 C        -3.2657260817       -4.3991388753        3.1886606186
 C        -1.9518326177       -4.8424528200        2.5025869354
 C        -1.9863679262       -4.9193950199        0.9938778663
 O        -5.0631499395       -3.4645009333        1.7735792401
 O        -0.9623761665       -5.3275680120        3.0416941894
 C        -2.8738592614       -3.8224371916        4.5967996190
 C        -4.2888548169       -5.5415212320        3.4408062354
 C        -0.5880929034       -4.8842510959        0.4090521015
 C        -0.1859015596       -3.4735160005        0.0112478834
 C         1.3158457347       -3.0503241614        0.1671401189
 C         1.5166488548       -1.8640556484       -0.8942117710
 C         2.3296991782       -2.2137864630       -2.1471533414
 C         1.2705950835       -2.5238823196        1.5872692221
 C         2.2825143845       -4.1969189764        0.0080179839
 O        -1.0701123331       -2.7013566430       -0.4030717213
 O         1.0525579846       -0.7544473177       -0.7399860393
 C         1.5236111326       -1.9043947153       -3.3425316898
 C         0.8616882662       -3.2711913032       -3.8831362569
 C         0.4958288239       -3.6584344570       -5.3828494405
 C        -1.0734044573       -3.4208316769       -5.5582964993
 C        -1.9212537143       -4.3546272391       -4.7713179246
 O         0.5676654675       -4.0524689644       -3.0066903338
 O        -1.5354332794       -2.5177009923       -6.2289733947
 C         1.3189438033       -2.7346357095       -6.2405088260
 C         0.9259214997       -5.1234037801       -5.5799288879
 C        -3.3405356312       -3.6820937232       -4.7069765001
 C        -3.1855854647       -2.3277817338       -3.9539959387
 C        -4.4762875642       -1.3097041532       -3.8481170699
 C        -3.9971098612       -0.0807270917       -2.8529040764
 C        -3.5424911037        1.3082181113       -3.2675752535
 C        -4.8988113681       -0.4958251146       -5.1125763749
 C        -5.6083329808       -2.1314883976       -3.3056801918
 O        -2.1487285818       -1.9796248863       -3.4214892486
 O        -3.9575363389       -0.3022156388       -1.6548410228
 C        -2.8995720433        2.2810292428       -2.2331584329
 C        -1.3841789530        2.3799063176       -2.2750717672
 C        -0.7073410768        3.7862730188       -2.5886314476
 C        -1.2782096377        4.9216881935       -1.6574663597
 C        -0.9928469074        6.4065068757       -1.8076057959
 O        -0.6699144073        1.3729327196       -2.1148325444
 O        -1.8454002664        4.5689199483       -0.6286916959
 C         0.8568301259        3.7359460338       -2.3772931467
 C        -1.1195306078        4.2611072845       -3.9502184194
 H         4.5460750987        6.5684348119        1.3847560480
 H         6.1563046788        6.0418223707        1.0896673558
 H         5.3678120805        7.1723592083        0.0802992997
 H         3.3207715490        3.0446721403        1.0609351902
 H         4.0627374493        1.8192346788        1.9332844726
 H         5.0192692894        3.0515724473       -2.2156555742
 H         3.7469518735        2.9096333846       -1.1532436399
 H         5.1106108513        1.8508254223       -1.0682559574
 H         7.3110150934        5.0480086426       -0.1890270884
 H         7.6335753181        3.3852692858       -0.7967777549
 H         6.8377524410        4.4879624604       -1.8330121803
 H         4.5948295687        3.6491682647        3.6784512326
 H         2.9724706975        4.2905955365        3.1087617278
 H         0.7070526920        0.9030512156        4.1278036919
 H        -0.4544318568        0.9483856673        5.4602920692
 H         1.8510313462        1.5777965783        7.2498183343
 H         3.5322065139        1.7663924119        7.1568675880
 H         2.7916712011        0.4487113578        6.1195574678
 H         2.3306759882        4.2560176100        6.8192709457
 H         3.9403439359        3.8998066359        6.3955663540
 H         2.8378204399        4.7903904756        5.2711601296
 H        -0.7652442848        1.8898183807        2.8146461300
 H        -1.3869047655        3.1042678064        4.0836890642
 H        -4.9808358952       -0.7393442101        1.6089517596
 H        -3.8689003223       -1.2878447254        0.4459654528
 H        -5.2094111504        0.0948170371        3.5796733992
 H        -5.7405782900        1.5902913758        2.7507952202
 H        -5.1573826276        1.7558121804        4.3149301782
 H        -4.2886947168        3.0087827746        1.4129997781
 H        -3.9016003308        3.6937542347        2.9598474311
 H        -2.6489339090        3.4221946334        1.8435204812
 H        -2.2859758166       -2.3120751678        1.7764321721
 H        -2.9355297977       -1.6291888381        3.3506459001
 H        -2.5310974847       -5.7433360453        0.6260484399
 H        -2.7512440505       -4.1964891901        0.5839603126
 H        -2.4107392552       -4.6796133297        5.1906414549
 H        -3.7248936899       -3.4740766859        5.1053676170
 H        -2.0751941666       -3.0996723904        4.5949753087
 H        -4.9693721603       -5.1551563534        4.1241963662
 H        -4.9428403118       -5.8848078155        2.5991810990
 H        -3.8331216871       -6.4192040830        3.9981210404
 H        -0.5546880867       -5.5195905353       -0.4647196500
 H         0.1262702857       -5.2786959396        1.1312879502
 H         3.2161815870       -1.4724029482       -2.1475850450
 H         2.7318480747       -3.1675693639       -2.2137228325
 H         0.6500572592       -1.6085997447        1.4445327391
 H         2.1648735496       -2.1553208614        2.0741947277
 H         0.7267104097       -3.2812554142        2.1231932101
 H         3.3252192082       -3.8685697500        0.0962176142
 H         2.0267920021       -4.8152829738        0.8368113192
 H         2.2762275496       -4.7796378335       -0.9130469876
 H         0.7428250272       -1.2449923899       -3.0995149249
 H         2.1120600598       -1.3386158837       -4.0972040715
 H        -2.0557378324       -5.3477007531       -5.1167859271
 H        -1.6306832055       -4.4346168243       -3.7537487301
 H         0.8732841955       -1.7524240795       -6.3007204183
 H         1.2599964235       -3.0276113005       -7.3196856979
 H         2.4240871557       -2.6419713644       -6.0329287604
 H         0.6614460861       -5.4807263893       -6.6272924862
 H         1.9868576999       -5.3418297123       -5.3149959965
 H         0.3338236273       -5.8201481468       -5.0646725481
 H        -4.1250026284       -4.3061633913       -4.1097353222
 H        -3.7486263494       -3.4132416414       -5.6783960007
 H        -2.8134460927        1.2558036814       -4.0723624778
 H        -4.4490351114        1.8544409588       -3.6866557718
 H        -5.5791803929        0.2943099262       -4.7639183932
 H        -5.5302332419       -1.2358787270       -5.6440682709
 H        -3.9938187066       -0.1002722669       -5.6095967757
 H        -6.5339681706       -1.6176747117       -3.2704107803
 H        -5.5841341443       -3.0601373429       -3.9501432656
 H        -5.3995287969       -2.2961341129       -2.2177740063
 H        -3.2528994813        3.2953708360       -2.6263209301
 H        -3.2887360900        2.0026177945       -1.2424377749
 H        -1.9597559987        6.9309986117       -1.7805278791
 H        -0.2718142375        6.7115727116       -1.0772917913
 H        -0.6069335877        6.6805751032       -2.8283581724
 H         1.2668093226        2.6538006914       -2.3111225416
 H         1.0843903219        4.0770777466       -1.3765369668
 H         1.4532188320        4.3171814692       -3.0691461831
 H        -0.6977617253        3.5544449735       -4.6170258152
 H        -2.1584538497        4.5293431066       -4.1403485014
 H        -0.5961265239        5.1557637076       -4.2038869065
 Na       -1.5772763197       -0.5757377158       -1.2206697286
