155

 C         4.9163644245        6.5038517819        0.7951798020
 C         4.5471297682        5.4483049019       -0.2481244407
 C         5.3438418368        4.0616295101       -0.1830684365
 C         5.1948195044        3.6651968448        1.3428537772
 C         3.9318004918        2.8832847564        1.7350214982
 C         4.8378926707        3.0714071175       -1.1808799505
 C         6.9183975784        4.1907406187       -0.4106823103
 O         3.5872166389        5.5721967671       -0.9935184499
 O         6.0069459801        4.0081935054        2.1950669952
 C         3.3999882668        3.3441282019        3.0894432247
 C         3.1342376480        2.2247543308        4.1155030322
 C         2.4335350818        2.5688889676        5.4793271119
 C         0.9093336521        2.8250821326        5.1534805179
 C        -0.0668518326        1.6480275994        4.7703208148
 O         3.2518811770        1.0128553367        3.9258512252
 O         0.4518336257        3.9636049929        5.1356756344
 C         2.7709821171        1.3807208163        6.4472304510
 C         2.9692056534        3.8872164235        6.1024731740
 C        -1.1355786533        1.9856666385        3.6499032024
 C        -2.4247305659        1.2055243771        3.7330264988
 C        -3.5868074887        1.4568367188        2.6217461220
 C        -3.1065845387        0.4305606329        1.5115529910
 C        -3.8776930140       -0.9092248093        1.4792897446
 C        -4.9387059461        1.1078212959        3.2769258737
 C        -3.5309609669        2.8792911640        2.1233359281
 O        -2.7184949839        0.4399053520        4.6569678764
 O        -2.2231421486        0.7658086018        0.7287583923
 C        -3.1789714361       -1.9914979128        2.2825012078
 C        -4.0624118398       -3.2837596147        2.4586336044
 C        -3.3425586369       -4.4346168496        3.3051353309
 C        -2.2020052622       -5.0628229644        2.3641535119
 C        -2.1969887694       -5.0840554428        0.7993553607
 O        -5.0165174637       -3.4153615134        1.7584634423
 O        -1.2535581663       -5.5048336781        2.9173935543
 C        -2.6727008180       -3.8340522754        4.5044812289
 C        -4.3025439101       -5.5919908958        3.6198541244
 C        -0.7063878917       -4.8528409235        0.3414854216
 C        -0.3389234913       -3.3458803073        0.1456207312
 C         1.2895766247       -2.8891321674        0.1880925176
 C         1.5145319398       -1.7665656750       -0.8730000879
 C         2.3737844442       -1.8966992353       -2.1478304127
 C         1.4803155994       -2.2650998539        1.5726244349
 C         2.1956951537       -4.1437788110       -0.0098802021
 O        -1.2044541326       -2.6587671510       -0.2827640497
 O         0.9975892541       -0.6853850512       -0.5930746643
 C         1.4535994399       -1.8239331434       -3.4898820378
 C         0.9157661502       -3.2221249449       -3.7710132890
 C         0.6949447697       -3.6323546737       -5.2393060301
 C        -0.8597426962       -3.4493492472       -5.5556002893
 C        -1.9125340889       -4.1927706716       -4.8452129115
 O         0.5497128527       -4.0110240381       -2.8974283126
 O        -1.1281153659       -2.6630279940       -6.4462024677
 C         1.4756779263       -2.8929923794       -6.3802950610
 C         1.0857241974       -5.2062191631       -5.3349915772
 C        -3.2546892165       -3.4934358152       -4.6489888570
 C        -3.1000078354       -2.2185630920       -3.7356506606
 C        -4.2116594535       -1.1295316030       -3.8282238712
 C        -4.0348972512        0.0182315299       -2.7915676629
 C        -3.6900714433        1.4075054531       -3.2257491644
 C        -4.3744780730       -0.6988813202       -5.3057765633
 C        -5.5783093071       -1.7673050605       -3.3127800036
 O        -2.0871771815       -2.0095088866       -3.0880345162
 O        -4.2072663544       -0.2119116018       -1.6105375976
 C        -2.9813160357        2.3665431317       -2.1945426184
 C        -1.4881609927        2.4092731664       -2.3092369773
 C        -0.7443205472        3.7114057223       -2.6139742851
 C        -1.3175293788        4.8174695518       -1.7011364101
 C        -1.2408718546        6.2984724829       -2.2381648743
 O        -0.7942320161        1.4403864190       -2.1334824600
 O        -1.7411637684        4.6195060044       -0.5987477727
 C         0.7948095281        3.5777540367       -2.4433228113
 C        -1.0176668852        3.9054321410       -4.1613582528
 H         4.5954107916        6.0964521015        1.7917094047
 H         5.9748022872        6.7545443635        0.8788858193
 H         4.3445686879        7.5142122711        0.6108825355
 H         3.0125652367        2.8066949950        1.1001925502
 H         4.2945692499        1.7873812025        1.8877279619
 H         4.7049306009        3.4631717169       -2.2333347529
 H         3.7718049898        2.7867791076       -0.9466212897
 H         5.5435821252        2.1859646119       -1.3432760741
 H         7.4528990904        4.7058987293        0.4010033838
 H         7.2797473199        3.1551164080       -0.4342275022
 H         7.1845391846        4.5289783895       -1.3983520538
 H         4.1186317897        4.0914316948        3.4911373938
 H         2.4497964051        3.8175310430        2.7944911466
 H         0.5518700018        0.9293517049        4.3774683834
 H        -0.5162330716        1.1610692263        5.6881278686
 H         2.4672573796        1.6572608932        7.4456165210
 H         3.8262728781        1.0015183189        6.3658238794
 H         2.2016170246        0.6152469761        6.1758652870
 H         2.5452930456        3.9388897973        7.1156333515
 H         4.0343248979        3.9207574772        6.1500671911
 H         2.5052774258        4.7094799490        5.5825304251
 H        -0.8018394105        1.5837393130        2.6465288356
 H        -1.4216143499        3.0669842735        3.8173686747
 H        -4.9622466219       -0.9305939787        1.6757327718
 H        -3.8130109694       -1.2339034412        0.3931854803
 H        -4.8829399855        0.3668599151        4.0405933917
 H        -5.6397484430        0.7342752018        2.4380562955
 H        -5.4802931775        2.0655255924        3.5069607768
 H        -4.3548260257        3.0236220856        1.3736009810
 H        -3.6882871150        3.6804742373        2.8919584056
 H        -2.6454914940        3.1917052574        1.5764223361
 H        -2.4093441278       -2.4826150931        1.6764608874
 H        -2.6666422595       -1.6145534538        3.1486349399
 H        -2.6547525770       -6.0373157918        0.4720460115
 H        -2.9480117745       -4.5416456005        0.2569773648
 H        -2.4471503946       -4.5651448464        5.1928857245
 H        -3.3428307671       -3.1302467603        5.0434296184
 H        -1.7392746120       -3.4393522136        4.1707239602
 H        -4.9952303532       -5.4774274490        4.5260062490
 H        -4.8497746106       -5.9312724428        2.7503093934
 H        -3.6860008154       -6.4100808985        3.8944226800
 H        -0.6078928270       -5.1897407879       -0.7211550759
 H        -0.0016898067       -5.4419089977        0.9445493176
 H         3.1361445675       -1.1732422355       -2.0941729863
 H         2.9358761552       -2.8932595912       -2.1078349386
 H         1.0551841697       -1.2985475256        1.7807476403
 H         2.5610405936       -2.0239159191        1.6686129958
 H         1.2653818869       -3.1361811810        2.1969530751
 H         3.2708283974       -3.9048327956       -0.0881665558
 H         2.0471395019       -4.7813489977        0.8570118394
 H         1.8113845858       -4.7072472621       -0.8702362364
 H         0.5661959141       -1.0939267570       -3.3089124150
 H         1.9235432195       -1.4852943527       -4.3996740705
 H        -2.2192946333       -5.1392984194       -5.3303592397
 H        -1.6345793628       -4.4677192693       -3.7944436616
 H         1.2631002609       -1.8336219361       -6.4973032604
 H         1.2210028230       -3.2335063029       -7.3511200912
 H         2.4831617594       -2.9099192585       -6.1418132830
 H         0.7541793123       -5.7363836878       -6.1524896155
 H         2.1618717549       -5.2104788997       -5.3943776995
 H         0.6133943943       -5.8910809914       -4.5627666805
 H        -4.0272602386       -4.0517578068       -4.2151486513
 H        -3.6213545517       -3.1226002952       -5.6224846719
 H        -3.0704334116        1.5047866630       -4.1423125123
 H        -4.6675741291        1.7862550589       -3.4900900590
 H        -5.3692209416       -0.1933595650       -5.3649486515
 H        -4.4801611246       -1.6341430770       -5.8431161391
 H        -3.5382835046       -0.0155735194       -5.5691062819
 H        -6.3304607074       -0.9650836559       -3.3376364505
 H        -5.7988917367       -2.5053450814       -4.0157170572
 H        -5.5953179897       -2.0516086842       -2.2567661905
 H        -3.3626171112        3.3366238907       -2.3644315971
 H        -3.2192268880        2.0359303884       -1.1856508903
 H        -1.9498922620        6.9590340150       -1.7796999687
 H        -0.2091910235        6.5803320999       -1.9987849916
 H        -1.3308086977        6.3864501725       -3.2707567536
 H         1.0637134244        3.0904153575       -1.5857828090
 H         1.3696687868        4.5235278401       -2.4762059510
 H         1.1460669221        3.0803537948       -3.3269993641
 H        -0.9968305609        2.9583633011       -4.7764654000
 H        -1.9277440553        4.5108580814       -4.2025302509
 H        -0.2765756275        4.5509145749       -4.7037974024
 Na       -1.3953187942       -0.5062323176       -1.1067022604
