155

 C         4.5628734575        6.9037954010        0.7204717540
 C         4.1414619377        5.6762959301       -0.0952540312
 C         5.1431961444        4.4348457086        0.0923953117
 C         4.9018073017        3.7878608387        1.5182018249
 C         3.5327318861        2.9954034730        1.6041668096
 C         4.8817718307        3.2823496298       -1.0134076647
 C         6.5679663916        4.9152646863        0.0085668745
 O         3.2694515746        5.7435522796       -0.8782819109
 O         5.6981092352        3.8256450075        2.4117160414
 C         2.9959148203        3.0534004839        3.0875373207
 C         3.0066505313        1.8951125967        4.1359240766
 C         2.3168397588        2.3301550687        5.4895892982
 C         0.8142982933        2.7810957556        5.1229782953
 C        -0.2247503853        1.6353315089        4.7795316900
 O         3.5584901968        0.8349651479        4.0110373846
 O         0.6147104618        3.9094153094        4.6348387444
 C         2.2315316540        1.0916447918        6.4620708270
 C         2.9049944360        3.4878495233        6.2793008916
 C        -1.2211441720        2.1220810116        3.7659922385
 C        -2.2404928100        1.0891681313        3.5855987545
 C        -3.3915740974        1.4090303156        2.5649515974
 C        -2.9956634754        0.3952614232        1.4992732689
 C        -3.7140293626       -0.9972933190        1.4237741828
 C        -4.7120520355        1.2181869474        3.2989316370
 C        -3.2587696181        2.8360972807        1.9771398946
 O        -2.2554078565        0.0111783628        4.1973068096
 O        -2.1169287092        0.6468919271        0.7251166947
 C        -3.3494629433       -1.9763497284        2.5710238933
 C        -4.0029760027       -3.3574793573        2.5031604418
 C        -3.2735022767       -4.5462864168        3.2293515792
 C        -2.1911725354       -5.3064903782        2.3067336166
 C        -2.2266285800       -5.2833514627        0.7853074348
 O        -4.8942381015       -3.5518287717        1.6868023313
 O        -1.3822515260       -5.9382727328        2.8873241291
 C        -2.4997998211       -4.1959009523        4.6427747802
 C        -4.1661782912       -5.7579119417        3.4401790958
 C        -0.7878532866       -4.9093379748        0.2018539396
 C        -0.4243214777       -3.3952415313        0.1724925947
 C         1.0532076572       -2.8732638910        0.1370446771
 C         1.2937522432       -1.7098633359       -0.8995321359
 C         2.4510123278       -1.5843025597       -1.9172916114
 C         1.3311943535       -2.4544081469        1.6268363075
 C         2.1179292262       -3.9730489947       -0.2098691439
 O        -1.2360668780       -2.5620631444        0.4283447217
 O         0.5738371464       -0.6929964602       -0.8429748045
 C         1.8130260212       -1.7941742772       -3.3815923532
 C         1.1303975069       -3.1558086554       -3.5998239471
 C         0.9283858032       -3.8649177228       -5.1228563952
 C        -0.6042778412       -3.4743487525       -5.4636562671
 C        -1.6667282616       -3.9723112097       -4.5052244094
 O         0.6637613942       -3.7586007759       -2.6557776397
 O        -0.9338417626       -2.7398185340       -6.3826880264
 C         1.8930568355       -3.2093989601       -6.1226238701
 C         1.0443138686       -5.3510811664       -5.0490261082
 C        -3.0263067246       -3.3375017754       -4.5081964780
 C        -2.9314862141       -2.0578468268       -3.7066234927
 C        -3.9565568389       -0.9044438287       -3.9284831886
 C        -3.8723405270        0.1847193592       -2.8619800827
 C        -3.8684808400        1.7353221136       -3.1345201230
 C        -3.7887408230       -0.3939413494       -5.4255793755
 C        -5.3568658270       -1.5666614898       -3.8139802707
 O        -2.0868837940       -2.0676842810       -2.7838110983
 O        -3.9486912971       -0.1967227946       -1.7178547781
 C        -2.9775133110        2.6996364151       -2.3201443276
 C        -1.5296241550        2.4380482801       -2.4430712733
 C        -0.6484866986        3.6814880885       -2.8878864224
 C        -1.2681466853        4.9490449001       -2.0426985651
 C        -1.5343040437        6.3000356478       -2.7254357724
 O        -0.9979884264        1.3083531873       -2.3886256626
 O        -1.6450828002        4.7939274301       -0.9010767926
 C         0.8895606692        3.6355463254       -2.7201945555
 C        -1.0030302510        3.8258301224       -4.3559854148
 H         5.1743746233        6.6017254990        1.5371846521
 H         5.0289598758        7.7572812950        0.1594596838
 H         3.6997778526        7.3766437412        1.1303153337
 H         2.8115499785        3.3984514138        0.8916712507
 H         3.7620201889        1.9167881925        1.4393805412
 H         5.4373656203        3.5172675211       -1.8876732689
 H         3.8298270024        3.1942272737       -1.2634374968
 H         5.3188057807        2.3055965597       -0.7416770586
 H         6.8644915979        5.4009619714        0.9473614793
 H         7.2121508842        4.0258968182        0.0439873193
 H         6.7031442163        5.4807094129       -0.9040205463
 H         3.4799716659        3.9764688070        3.5351980556
 H         1.9240792741        3.2806006621        2.9969987960
 H         0.3677228826        0.8551385799        4.4625374615
 H        -0.7096961222        1.3931761222        5.7452531331
 H         1.6049054479        1.3525757691        7.1910794248
 H         3.2599686846        0.8843392259        6.7893335813
 H         1.9170863001        0.1968363219        5.9478663580
 H         2.4314521820        3.5259002706        7.2555490610
 H         3.9431016998        3.3645176802        6.3642857233
 H         2.6676713012        4.3575965368        5.7459076895
 H        -0.7510736176        2.4563179489        2.7883233505
 H        -1.7192009774        2.8630154178        4.4463209290
 H        -4.8074050554       -0.7192767187        1.5734803708
 H        -3.6725623361       -1.2880779133        0.3943267886
 H        -4.9891867256        0.2034010354        3.4067646907
 H        -5.5924107942        1.7732427100        2.8115702374
 H        -4.5222858446        1.6662448280        4.3346192494
 H        -3.8356186381        3.1673589376        1.0965604339
 H        -3.5184047163        3.5380965740        2.8226507612
 H        -2.2207863648        3.0409609600        1.7051321819
 H        -2.2598895789       -2.0824346142        2.6945410295
 H        -3.6027588094       -1.5650921746        3.5726747598
 H        -2.7364990636       -6.1232200670        0.3249585846
 H        -2.9591911100       -4.5274876033        0.4522400448
 H        -1.9357961704       -4.9744046837        5.0850074259
 H        -3.3149022563       -3.9900089033        5.3353757386
 H        -1.9572984360       -3.3157164577        4.5153676253
 H        -5.1636051576       -5.4399786183        3.8172422753
 H        -4.2342437924       -6.3137917346        2.4930851102
 H        -3.7386868623       -6.5175890477        4.0842377887
 H        -0.7369598896       -5.2551519057       -0.8542038894
 H         0.0179510661       -5.3716034785        0.7403881139
 H         2.9117774871       -0.6277762687       -1.8694790509
 H         3.3348432868       -2.2519625348       -1.7799546377
 H         0.6947966307       -1.5430732784        1.7877588559
 H         2.4334036787       -2.1879739941        1.7554536956
 H         1.0763918351       -3.2518983375        2.3243132118
 H         3.1153752959       -3.5480699404       -0.0712508002
 H         2.0902527173       -4.8054061152        0.4047516743
 H         1.8536332935       -4.3193396308       -1.2006440718
 H         0.9894445714       -1.0632341936       -3.7052503549
 H         2.5979418661       -1.8195530157       -4.0916764267
 H        -1.8691900238       -5.0184071907       -4.4394863923
 H        -1.3841350631       -3.7157651279       -3.4597916682
 H         1.6221110431       -2.1505489088       -6.2791563687
 H         1.7982688009       -3.6970647131       -7.1051303117
 H         2.8971961837       -3.1151433160       -5.7802797219
 H         0.8534877397       -5.8880352143       -5.9282590015
 H         2.0553892220       -5.6686785316       -4.8754386630
 H         0.2329118499       -5.7013141036       -4.3748610255
 H        -3.8724526306       -3.8576801675       -4.0993416810
 H        -3.3775734808       -2.9903088531       -5.5112260856
 H        -3.6756620601        1.9170691024       -4.2517485809
 H        -4.8740644895        2.1468501825       -2.9699359062
 H        -4.4428763758        0.5335155301       -5.5954409790
 H        -4.1669396319       -1.2720552670       -6.0539798041
 H        -2.6773096384       -0.1332611665       -5.6227890058
 H        -6.1340682750       -0.9311545497       -4.1402140619
 H        -5.4486461597       -2.4850225441       -4.4140823769
 H        -5.4526341643       -1.8293922043       -2.6632496449
 H        -3.2957361417        3.7029856208       -2.5562285625
 H        -3.2923569923        2.6252423179       -1.2862212478
 H        -1.3534642101        7.1258382117       -2.0407746811
 H        -0.9314182892        6.4167189121       -3.6351969670
 H        -2.5491060165        6.2505058432       -3.0473566658
 H         1.3798363259        4.5645047158       -2.4833555279
 H         1.3223530681        3.0915325135       -3.5901553430
 H         1.1521510065        2.9655257969       -1.9112309198
 H        -0.5262414208        3.0028325614       -4.9817922116
 H        -2.0710688446        3.7176255433       -4.5355149221
 H        -0.5993159749        4.7576216089       -4.7487004545
 Na       -1.7298967969       -0.6061507997       -1.0034811467
