155

 C         3.7346479318        7.0802024901        0.8001980430
 C         3.7329988427        5.7147533366        0.1536583701
 C         5.0313589517        4.8026379795        0.2695573405
 C         4.8570259858        4.1803785330        1.6663573289
 C         3.6891596678        3.1333158817        1.6907785194
 C         5.1677070042        3.6078045078       -0.7483439339
 C         6.3718794490        5.6099646936        0.2373666466
 O         2.6577305277        5.1580000669       -0.1132200877
 O         5.3851915810        4.6097283104        2.6575313975
 C         2.8935967372        3.1943120999        3.0241890735
 C         2.9564751397        1.9382397916        3.9366934028
 C         2.2791542152        2.1172155945        5.3279563457
 C         0.8116623460        2.7672408892        5.3463890193
 C        -0.2786920510        1.8095413909        5.0757568117
 O         3.5984371428        0.9270568583        3.6387463358
 O         0.6505868607        3.9124692439        5.6728836465
 C         2.2446911368        0.7535646487        6.1668314182
 C         3.2671254715        3.1106568907        6.1107433904
 C        -1.5149360947        2.3022877816        4.3189633771
 C        -2.4737648183        1.1323996077        4.0449444946
 C        -3.6044256485        1.3109779791        2.9994982164
 C        -3.2639869647        0.2540355588        1.8116254990
 C        -4.0944964452       -1.1180290134        1.7727007406
 C        -4.9584803905        0.9016139668        3.6861294768
 C        -3.7805383318        2.7198041795        2.3336783433
 O        -2.4098563696        0.0350591219        4.5779974234
 O        -2.6598583336        0.6582373788        0.7743909600
 C        -3.3542953495       -2.1446408189        2.5378644682
 C        -3.8084106418       -3.5944474943        2.1441761460
 C        -3.2285352848       -4.8041513549        2.9215294010
 C        -1.9037365887       -5.2730454287        2.1568089613
 C        -1.9577704092       -5.2099397674        0.6364444509
 O        -4.6968603567       -3.7071341846        1.3857595681
 O        -0.9362814260       -5.6502285344        2.7252758871
 C        -2.9769711203       -4.3889729826        4.3678895320
 C        -4.3158773795       -5.9434973479        2.9291735681
 C        -0.5599203837       -4.8767730875        0.1293931817
 C        -0.2453594054       -3.3760526284        0.1870474303
 C         1.2130444044       -2.8585466902        0.3920703895
 C         1.5728151457       -1.9267312765       -0.8616474787
 C         2.8869434113       -2.3270420486       -1.5888366856
 C         1.1317805839       -1.9018971800        1.6471552384
 C         2.2680549848       -4.0840196796        0.6308201190
 O        -1.2563238003       -2.6439443036        0.2867522356
 O         0.8080637282       -1.1004382710       -1.2431081576
 C         2.5455837688       -2.5219344484       -3.0783537628
 C         1.3929450626       -3.5046560738       -3.4169776386
 C         1.0195070767       -3.9604566950       -4.8677821267
 C        -0.3846487352       -3.2648609519       -5.1918296553
 C        -1.6114556765       -3.9693655511       -4.6273104609
 O         0.6584180784       -3.6745455217       -2.4760285951
 O        -0.4992357172       -2.1945316489       -5.7186252164
 C         1.9845118558       -3.3910208047       -5.8313605299
 C         0.7912955057       -5.4612973685       -4.8522387623
 C        -2.8762094289       -3.2309227343       -4.7609797134
 C        -2.7887492661       -1.9425709984       -3.8527369505
 C        -3.6201339733       -0.7427242177       -4.4737326503
 C        -3.8793242841        0.2409931948       -3.2811506679
 C        -4.0002488394        1.7981789162       -3.5094918307
 C        -2.9157393832       -0.1814730473       -5.7420454536
 C        -5.0643313052       -1.2084330588       -4.9047084822
 O        -2.0873542472       -1.9615930990       -2.8380388637
 O        -4.0433928935       -0.2673114636       -2.1423594878
 C        -3.1651469731        2.5433750312       -2.4696956105
 C        -1.6366863306        2.3953145505       -2.6902685736
 C        -0.9001282650        3.7113169058       -3.2054693007
 C        -1.2987441253        5.0242183855       -2.3895788370
 C        -1.1477902264        6.2986951901       -3.1955705763
 O        -1.0504315984        1.3302371365       -2.6051990828
 O        -1.7047354945        5.0550623533       -1.2647035153
 C         0.6109017507        3.4575260897       -3.0546461889
 C        -1.2944297437        3.6648563261       -4.7636384290
 H         3.8525624412        6.9687593808        1.9279590487
 H         4.5989660487        7.6804787764        0.4803744950
 H         2.7692529284        7.6940754621        0.6158728530
 H         2.9658513116        3.2826294037        0.8034916855
 H         4.0706711142        2.0505522244        1.5992572247
 H         5.0987615825        4.1355862763       -1.7336091170
 H         4.4063386502        2.8137948585       -0.6573225771
 H         6.0799222346        3.0413142277       -0.4757663147
 H         6.4072314269        6.2702244603        1.0931053855
 H         7.1854596686        4.9256741054        0.0751840586
 H         6.2846159491        6.2826906594       -0.6255514275
 H         3.1815113192        4.0328975126        3.6359169653
 H         1.8680276637        3.5678652070        2.7539291250
 H         0.2368338302        1.0527419295        4.4354845159
 H        -0.8182832226        1.4243484036        5.9286912575
 H         2.2418648403        0.9542590362        7.2452409010
 H         3.2947140608        0.3209390615        5.9415461013
 H         1.4381803980        0.1845051349        5.8151704493
 H         3.2511305438        2.9768264716        7.1431780955
 H         4.2401944050        2.9437519183        5.7347752188
 H         2.9951762005        4.1204772735        5.8384609849
 H        -1.2011501051        2.5698336545        3.2886424936
 H        -2.1456706195        3.1834383882        4.5525290748
 H        -5.1089644691       -0.9286585957        2.1467771207
 H        -4.0899140265       -1.3933190730        0.6207316067
 H        -5.0047984344       -0.1496799175        3.9272918901
 H        -5.9365972529        1.3488467690        3.2310094057
 H        -4.8621295843        1.2539274375        4.7536232116
 H        -4.6190080098        2.7131169449        1.5429546832
 H        -4.1742571912        3.3910306973        3.1536064972
 H        -2.8328654472        3.1313121387        1.9554154743
 H        -2.2962272930       -2.1209375764        2.3159420294
 H        -3.3970169510       -1.9820669810        3.6000108340
 H        -2.1514198449       -6.3528585082        0.4816513736
 H        -2.7573857367       -4.6404092316        0.2224293437
 H        -2.4831289536       -5.2038654056        4.6915474970
 H        -3.9805418023       -4.3222827910        4.7874047689
 H        -2.4192054298       -3.5223614441        4.6290127676
 H        -5.2946910403       -5.4830368026        3.2868539065
 H        -4.6353442108       -6.2303716469        1.9532560897
 H        -3.9967570047       -6.7777007802        3.5308487269
 H        -0.3695375047       -5.1926249891       -0.8852044176
 H         0.1196585835       -5.4432443655        0.8491710645
 H         3.5803253017       -1.5407374720       -1.3767397332
 H         3.2228785099       -3.2844835547       -1.1449783951
 H         0.4096836291       -1.0994595358        1.6164810361
 H         2.2016272437       -1.6558601185        1.8048457011
 H         0.7735610741       -2.5250147784        2.5427274666
 H         3.2145875829       -3.6525520357        0.7698856271
 H         1.9591147694       -4.7550718134        1.4933037369
 H         2.3028131758       -4.5544873517       -0.3323895032
 H         2.2133459484       -1.5935621716       -3.5104304284
 H         3.4557113302       -3.0097565442       -3.5936069371
 H        -1.6916701697       -4.9492846264       -5.2531514843
 H        -1.4822504081       -4.3326809663       -3.5862073040
 H         1.8194841958       -2.3175127232       -5.8328159526
 H         1.8451338001       -3.7691109480       -6.8048414096
 H         3.0031136002       -3.6391592814       -5.6526677686
 H         0.5415234246       -5.6414293290       -5.8407732802
 H         1.5728871286       -6.0462249410       -4.4869170656
 H         0.0378226637       -5.8413570522       -4.0903615994
 H        -3.7993753480       -3.6548347662       -4.4508968329
 H        -3.0044856825       -2.9485968848       -5.7769481466
 H        -3.8331014095        2.1324179213       -4.5119008068
 H        -5.0818418411        2.0135518049       -3.3058256999
 H        -2.7129559391        0.9321666948       -5.6716092571
 H        -3.4512727198       -0.2870599108       -6.7110657034
 H        -1.9359085172       -0.7210577146       -5.9690990736
 H        -5.6929489003       -0.4236373906       -5.3596288442
 H        -5.0518230055       -2.0481052107       -5.4941137066
 H        -5.6024074799       -1.6011844742       -4.0178603012
 H        -3.4047998540        3.5807761385       -2.4343988199
 H        -3.4559277032        2.2555691292       -1.4497633860
 H        -1.5136920326        7.1650985674       -2.7148264402
 H        -0.0773724064        6.4521681760       -3.2597592457
 H        -1.4740322863        6.1366537308       -4.1892740653
 H         1.1551943336        4.2658728421       -3.3916279750
 H         0.8546561665        2.7325455499       -3.8163276105
 H         0.9648346552        3.1963150495       -2.0594412342
 H        -0.8237491260        2.7772034158       -5.2052861761
 H        -2.3968600604        3.4702665412       -4.8239219123
 H        -1.0819932614        4.6157786265       -5.3422412337
 Na       -1.5119716937       -0.5424364396       -1.1231958309
