155

 C         1.5345823841        8.6846373312        2.7749628684
 C         1.6553398888        7.5610999687        1.7946847506
 C         3.0591533341        6.8277711386        1.8165092127
 C         2.9349807221        5.9963318032        3.2768954074
 C         2.6234752242        4.4852758955        3.1821995924
 C         3.2414817284        5.9648785964        0.5134965085
 C         4.2476661978        7.8465512436        1.9243227271
 O         0.7214420114        7.1301048781        1.0848240665
 O         3.0714866922        6.5578461173        4.3324685679
 C         2.1795623038        3.9484720351        4.5801574401
 C         2.3144134184        2.4463882694        4.6395960137
 C         1.3074270696        1.7675202211        5.6022181565
 C        -0.1723126159        2.0544191558        5.0972094343
 C        -0.7437286508        1.0994962212        3.9668031929
 O         3.2561967468        1.7694551043        4.2425975162
 O        -0.8210285030        2.9524555747        5.5731099786
 C         1.3893374599        0.2232418447        5.6814913554
 C         1.5106755484        2.3979774205        7.0652689852
 C        -2.0326294391        1.6993769583        3.2976208216
 C        -3.2166962969        0.6929323167        3.0846724684
 C        -4.1213267156        1.1105545317        1.9735398099
 C        -3.5243810867        0.2290898280        0.8044499489
 C        -4.1979066150       -1.1519598295        0.3115021815
 C        -5.6351235976        0.7606131853        2.2957122148
 C        -4.0489704764        2.5923013912        1.5821020142
 O        -3.3209047175       -0.3245046291        3.6987480334
 O        -2.5030747145        0.6321171039        0.2129429731
 C        -3.4397098647       -2.3386346027        0.9397922779
 C        -4.1036527751       -3.7690532468        0.8034145605
 C        -3.3403528728       -5.0184207530        1.4752796725
 C        -1.7948064231       -4.7684581242        1.6732508966
 C        -0.8246277130       -5.2306398039        0.5261392710
 O        -5.1209812073       -3.9424128165        0.1739217798
 O        -1.3853466051       -4.0169484529        2.5310619798
 C        -4.0287003343       -5.2719490468        2.8598708903
 C        -3.6850278792       -6.2599162586        0.6529956557
 C         0.5802490561       -4.5954263756        0.7796686270
 C         0.4759485511       -3.0962451604        0.4795683000
 C         1.7859426848       -2.1892855970        0.5031517913
 C         2.2906146091       -2.2270847350       -1.0091259675
 C         3.6610610270       -2.7467956586       -1.3699105220
 C         1.4778816389       -0.7251952909        1.0311359021
 C         2.8634688228       -2.7623834687        1.5234201637
 O        -0.5204804031       -2.6374802307       -0.0017970000
 O         1.6299914828       -1.5270578276       -1.8325125564
 C         3.6423824225       -3.3117970876       -2.8048425300
 C         2.5574811701       -4.3838279335       -3.0777176628
 C         2.2944844035       -4.8798153259       -4.4555222142
 C         0.9201240734       -4.1350925684       -4.7954897312
 C        -0.4767785823       -4.7463894797       -4.5998965125
 O         1.8768706842       -4.7566089133       -2.1069526253
 O         1.0034448796       -3.0184310225       -5.2791457224
 C         3.4685786268       -4.3816520516       -5.4544017193
 C         2.1188379729       -6.4307184846       -4.2489834482
 C        -1.6884452421       -3.8957694680       -5.1552653847
 C        -1.7455823211       -2.5996986681       -4.2735970004
 C        -2.3684775640       -1.2916407364       -4.9512728045
 C        -3.0313618631       -0.3748054372       -3.7900372338
 C        -3.5643623968        1.1012147810       -4.1177990852
 C        -1.1408817114       -0.6326407489       -5.7744236774
 C        -3.3914477000       -1.6970795270       -6.0411531206
 O        -1.2374382827       -2.5934097727       -3.1692074480
 O        -3.0273684302       -0.7711494949       -2.6309561411
 C        -3.0243032557        2.1553270871       -3.0352161738
 C        -1.4781057232        2.2279229188       -2.8419594920
 C        -0.7595433070        3.5066887576       -2.5875086259
 C        -1.4069113875        4.4559840783       -1.5295129162
 C        -0.4074876270        5.5191908470       -0.9692689654
 O        -0.7496524079        1.2249027685       -2.8640199488
 O        -2.6174447600        4.3718819561       -1.2926048535
 C         0.7637368465        3.0812390983       -2.3331105916
 C        -0.9076245312        4.3043308181       -3.9572742467
 H         2.3008310391        8.4612060660        3.6440173128
 H         1.8310530724        9.6434006284        2.3007489984
 H         0.5511992201        8.8847701716        3.1692270058
 H         1.7843822702        4.3159542005        2.5144337257
 H         3.4253376443        3.7629449961        2.8256277224
 H         3.0729459501        6.5939636278       -0.2983317407
 H         2.5155607351        5.1584264151        0.5699531995
 H         4.2024388990        5.6087407817        0.3406685707
 H         4.3511844992        8.1466729151        2.9858526752
 H         5.2301749193        7.4392960035        1.7821215445
 H         4.2976294150        8.7571562236        1.3082336425
 H         2.8420179415        4.3500730377        5.4143401220
 H         1.0845256319        4.2773941441        4.7330279664
 H         0.1159674918        0.9930412696        3.3551839771
 H        -0.8225343182        0.1589718896        4.3680524762
 H         0.4964683079       -0.1890302808        6.0390747696
 H         2.1557270353       -0.0594322943        6.4896989638
 H         1.6618764771       -0.1542369514        4.7323611378
 H         0.9731280285        1.8103439208        7.7697934861
 H         2.5329681001        2.1975240242        7.3235881777
 H         1.1947075437        3.4308083346        7.0456139803
 H        -1.6564953636        2.0261237940        2.2650907426
 H        -2.2923415122        2.5595993079        3.9506370715
 H        -5.2085114506       -1.1439477507        0.6448569219
 H        -4.1663760258       -1.1604704915       -0.7840878775
 H        -6.2298574376        0.8262234253        1.3325786277
 H        -6.1811443482        1.3556661565        2.9779347101
 H        -5.6283896559       -0.1974427695        2.8357861685
 H        -4.7134562453        2.7047804239        0.7540264903
 H        -4.1678675025        3.1714084195        2.4690455064
 H        -3.1351642771        2.9592876488        1.1898685534
 H        -2.5097419375       -2.4542972961        0.2932880087
 H        -3.1631963726       -1.9692105252        1.9656516376
 H        -0.7400120637       -6.2775337646        0.5130227496
 H        -1.2008996728       -4.8767104514       -0.4920369805
 H        -3.4259184992       -6.0080204975        3.5227441725
 H        -4.9789618414       -5.7396786550        2.6657017645
 H        -4.1226369125       -4.3539958371        3.4351511198
 H        -4.7487185247       -6.4104952518        0.5263327024
 H        -3.0642550128       -6.3747945408       -0.2362321165
 H        -3.5793249649       -7.1749886941        1.2104893553
 H         1.3574555033       -5.0395333371        0.0722367133
 H         0.9752379859       -4.7499221180        1.7516082022
 H         4.4892651836       -2.0099617809       -1.2539605380
 H         3.8986473549       -3.4214328823       -0.6002325810
 H         0.5878239181       -0.3503852351        0.5233136745
 H         2.3898330050       -0.2459754211        0.8208572461
 H         1.2067323376       -0.6624216290        2.0478543161
 H         3.8747402646       -2.3181376941        1.5135337896
 H         2.4856286703       -2.5121666073        2.4790455761
 H         2.9664770948       -3.8344453098        1.6204529563
 H         3.4067873790       -2.5145218933       -3.5023612772
 H         4.5952013530       -3.7369049102       -3.1020351024
 H        -0.5371970815       -5.7096623855       -5.0104757866
 H        -0.7144427982       -4.8857814064       -3.5240168225
 H         3.3416725378       -3.2605330030       -5.6459047699
 H         3.5708905176       -4.7578746719       -6.5020680058
 H         4.4428964172       -4.4686863226       -4.9339027170
 H         1.4695774775       -6.8637305180       -4.9816886047
 H         3.1032142310       -6.8809945451       -4.4882460936
 H         1.7417297759       -6.6313259509       -3.3223436188
 H        -2.5896968316       -4.5646369978       -5.2411073676
 H        -1.4130332200       -3.6498346719       -6.1730128330
 H        -3.2994060029        1.1927527644       -5.1491011491
 H        -4.6558136112        1.0378423929       -3.8840260366
 H        -0.3318130679       -0.2944852336       -5.1057843729
 H        -1.4653292693        0.0437204612       -6.5897521079
 H        -0.6072629382       -1.4281808637       -6.2710448742
 H        -4.2806274369       -1.0610348975       -6.0961616947
 H        -2.9598519220       -1.6312792878       -6.9872563661
 H        -3.7899969453       -2.6620203371       -5.8558375175
 H        -3.4353107598        3.1756136278       -3.2170595697
 H        -3.5505117932        1.9301381974       -2.0659537046
 H        -0.8171910888        5.7780931361        0.0151338425
 H         0.6247770221        5.1648993785       -0.8921153556
 H        -0.2608183307        6.2410721712       -1.7851548334
 H         1.4275116530        3.9689385329       -2.2810538016
 H         1.1616335627        2.5190126627       -3.2398296728
 H         0.8748636206        2.4067155522       -1.5095682877
 H        -0.0782308263        5.0069203203       -4.1328186286
 H        -0.9105635290        3.6790035809       -4.8093557787
 H        -1.8160629571        4.8626068945       -3.9243896591
 Na       -0.8973378063       -0.7197821279       -1.5532808898
