155

 C         0.7910011191        9.4757624232        4.4681448784
 C         1.3509437890        8.4488311723        3.4688295259
 C         2.8772523961        7.9362479378        3.5046903018
 C         2.6928231971        6.5588599624        4.3047187103
 C         1.7256272126        5.4353500282        3.7503545196
 C         3.2125676139        7.7052438914        2.0411012800
 C         3.9792696070        8.8190806964        4.1092532272
 O         0.6291967132        7.8810501818        2.6889620268
 O         3.1812576199        6.4711757801        5.4277033130
 C         0.7734565555        4.9783357641        4.8666317149
 C         0.3367135215        3.4831199079        4.6959511111
 C        -0.5475533632        2.8420878874        5.8624457890
 C        -2.0077987880        2.8138336925        5.2426262184
 C        -2.5376209011        1.5154389184        4.5302099882
 O         0.5454562031        2.8378532844        3.7076081098
 O        -2.7855004819        3.7524159823        5.4263581258
 C         0.0748898728        1.4358424582        6.2170401547
 C        -0.6337200481        3.6574467601        7.2039569268
 C        -3.3564189570        1.7898112694        3.1970780489
 C        -4.0318869623        0.6337657993        2.6172837829
 C        -4.6144423265        0.6120132481        1.0201530388
 C        -3.6484495254       -0.4261031901        0.2970168061
 C        -4.0229986010       -1.9166994495        0.2136689173
 C        -5.9818299322       -0.0779624891        1.2533504828
 C        -4.7476958191        1.9921451031        0.4418281466
 O        -4.0587948170       -0.4080904203        3.2193533791
 O        -2.7215670470       -0.0344436763       -0.3332796535
 C        -3.4681522638       -2.8002140646        1.3581491503
 C        -3.2218131665       -4.2327978625        0.8548648440
 C        -2.5848376724       -5.3860786088        1.7887926124
 C        -1.0535238487       -5.3031890426        1.6066877092
 C        -0.4706398922       -5.6568252463        0.2376359654
 O        -3.3768513580       -4.4399013241       -0.3225125387
 O        -0.4487615520       -4.8124235137        2.4992670014
 C        -3.0253792902       -5.0621337606        3.2579452503
 C        -2.9832387107       -6.8802400425        1.4359454356
 C         0.8067585067       -4.7785182467        0.1085619467
 C         0.4595548585       -3.3042136008       -0.2313647273
 C         1.7017381996       -2.2671872553       -0.1854438035
 C         2.0751658807       -1.8269134387       -1.6729363477
 C         3.3976474356       -2.1653408808       -2.2924046829
 C         1.2972468954       -1.0714270411        0.6996262247
 C         2.7827867435       -2.9434688575        0.7377341440
 O        -0.6529957463       -2.9583731748       -0.4318919479
 O         1.1179192240       -1.4962900182       -2.3769950446
 C         3.2976013214       -2.9751083368       -3.5679557961
 C         3.0693300530       -4.4555904653       -3.1792685865
 C         2.8569344988       -5.4450202790       -4.4070782157
 C         1.5833285200       -4.8171851180       -5.1659739251
 C         0.0779411885       -5.2111412684       -4.9733188722
 O         3.1233275418       -4.8724026841       -2.0390804504
 O         1.8019180113       -3.8381108523       -5.8668217998
 C         4.1357533575       -5.4511855815       -5.3342750160
 C         2.4301782278       -6.9571632319       -3.9806883318
 C        -0.9449457652       -4.2376090434       -5.6149800485
 C        -1.1607850441       -2.9148517222       -4.8577813412
 C        -1.2559228162       -1.4948730444       -5.7645955891
 C        -1.5818887230       -0.3333473023       -4.7176846698
 C        -1.0115849408        1.0596477616       -4.8280060985
 C        -0.1185520073       -1.2324218631       -6.7031279654
 C        -2.5731938831       -1.8107156679       -6.5739172767
 O        -1.2419702603       -2.8896380766       -3.6574493323
 O        -2.3530947208       -0.5517282732       -3.8201788369
 C        -1.4943898024        1.9371232406       -3.6440988093
 C        -0.4025624238        2.1169411288       -2.6010460521
 C        -0.1045607457        3.6279557250       -2.1796041906
 C        -1.2411032408        3.8822472529       -1.0371599827
 C        -0.7849213181        4.2762672177        0.3835286579
 O         0.1754816973        1.1607806297       -2.1089040845
 O        -2.3942552620        3.5386834866       -1.2603878018
 C         1.3579507198        3.8975936454       -1.6670932276
 C        -0.4729099055        4.6780138531       -3.2095857423
 H         1.4922345970       10.3747079704        4.6570712665
 H        -0.2496590062        9.7623145554        4.1579794648
 H         0.7423817391        9.0260788367        5.4466173745
 H         1.2089993362        5.6258866587        2.8573215490
 H         2.3404293606        4.5299585948        3.5213039977
 H         3.2000012305        8.6609363036        1.5022767298
 H         2.4788520204        6.9956005253        1.6065118749
 H         4.2174742889        7.2509809517        1.9246226501
 H         3.8743805924        8.8164570203        5.2239489141
 H         4.9755136475        8.4825025030        3.8072337787
 H         3.7131496929        9.8241750236        3.7675060728
 H         1.3949339999        5.0535052457        5.7258637974
 H        -0.0199382298        5.6339618069        5.0577546338
 H        -1.7527658837        0.8243610743        4.3961304740
 H        -3.3117497161        1.0454540185        5.2536138784
 H        -0.6612217977        0.8166999589        6.7352711088
 H         0.8296331091        1.4985158594        6.9290710660
 H         0.4161518677        0.9422400480        5.3631080353
 H        -1.1012983953        3.1435894842        8.0530501256
 H         0.3508143173        3.9233437540        7.5169454601
 H        -1.1079230669        4.5920069441        7.0357539796
 H        -2.5562010072        2.1998559719        2.6061316629
 H        -4.0678673809        2.5657702267        3.3484993359
 H        -5.0489300418       -1.9668583624        0.0029627745
 H        -3.5489078213       -2.3452265253       -0.7005922896
 H        -6.3436976477       -0.5812385867        0.3183584874
 H        -6.6790782485        0.6218641021        1.7227032733
 H        -5.9077978508       -0.9613045292        1.9021331538
 H        -5.2897241249        1.9575674225       -0.5476598332
 H        -5.2799634295        2.7658022041        1.0773538483
 H        -3.6713929523        2.3456479365        0.3005239849
 H        -2.6543561585       -2.2649425956        1.8412800663
 H        -4.2790372333       -2.9601332472        2.0660420221
 H        -0.1834388498       -6.7053883913        0.1818346100
 H        -1.3006937343       -5.5320494845       -0.4708950314
 H        -2.5869895969       -5.7710385350        3.9428804376
 H        -4.1627970044       -5.1890939350        3.3056945426
 H        -2.7795819158       -3.9877748756        3.5482865785
 H        -4.0713980751       -6.9010840845        1.1822745149
 H        -2.4978841601       -7.1554277113        0.4903727877
 H        -2.5909100573       -7.5200545333        2.2500269154
 H         1.4616461212       -5.2888856950       -0.6890224933
 H         1.2168260594       -4.8881196118        1.0787859206
 H         3.9575048476       -1.2392239611       -2.6306270631
 H         4.0792805108       -2.6091393342       -1.5364485645
 H         0.6267794397       -0.5592826084        0.0739881201
 H         2.1182650070       -0.3489907245        0.8191573493
 H         1.0510266508       -1.4438814886        1.6707427618
 H         3.6802014807       -2.4157663123        1.1512688689
 H         2.2294955400       -3.3345483730        1.5776316711
 H         3.2265525087       -3.7588229599        0.1219035962
 H         2.5015827079       -2.6235684112       -4.1015301042
 H         4.1800478226       -2.8911579666       -4.1932271971
 H        -0.1306632242       -6.1840071759       -5.4251595655
 H        -0.1575799117       -5.2906400427       -3.8557815073
 H         4.7677188859       -4.5812685240       -5.2668534413
 H         3.8736402941       -5.7001725613       -6.4092830983
 H         4.8638507803       -6.1931216501       -4.9188757678
 H         2.6145282309       -7.6595051578       -4.7664864046
 H         2.9683549804       -7.1459148532       -3.1021614414
 H         1.3312787474       -7.0223026573       -3.7309651700
 H        -1.8879022917       -4.8019962459       -5.7142134404
 H        -0.7344515428       -4.0491618327       -6.6714956621
 H         0.0153866833        0.8846081789       -4.6435604554
 H        -1.0545525496        1.6694733312       -5.7598526928
 H         0.7502956535       -1.0284410609       -6.0827097397
 H        -0.2919458758       -0.2313865452       -7.1171220023
 H         0.0553542489       -1.9765153580       -7.4439847372
 H        -2.8000523968       -0.9168687133       -7.1899107504
 H        -2.4219803823       -2.6139219765       -7.3341520419
 H        -3.4191879301       -2.1872206455       -5.9241350909
 H        -1.9502753778        2.8727457221       -4.0086897225
 H        -2.3243599541        1.4518530636       -3.0564061088
 H        -0.8694135203        5.3871360312        0.4538866002
 H        -1.4987541365        3.7614135281        1.0669121738
 H         0.2838563472        4.1356074181        0.4268737353
 H         1.5565931994        4.9486988807       -1.4646713787
 H         2.0467399816        3.6838127614       -2.4612858661
 H         1.6508808414        3.2400457622       -0.8672175206
 H        -0.4775440294        5.6557622731       -2.6755558616
 H         0.1706496271        4.8046835584       -4.0980183458
 H        -1.4470313186        4.6046246540       -3.7230176589
 Na       -1.1606270582       -1.0013151119       -1.8226726334
