155

 C         0.7174926696        9.6843677543        4.5428950047
 C         1.2655803746        8.7142672798        3.4146683772
 C         2.5694195526        7.8847002513        3.6927937271
 C         2.3820255309        6.6043481231        4.5847148983
 C         1.6124445840        5.4658235424        4.0300259282
 C         3.1751163060        7.5523273872        2.3092473678
 C         3.6346587641        8.7691641353        4.4128396711
 O         0.6194572296        8.5404221066        2.4687535373
 O         2.9341572428        6.5225344314        5.6680770811
 C         0.8356483307        4.7306089022        5.1359296177
 C         0.1861978480        3.4609877411        4.7345102890
 C        -0.9285475263        2.8730594915        5.7549689940
 C        -2.2545379632        2.6674090891        4.8806948113
 C        -2.2012741357        1.3761748647        4.0533195476
 O         0.5093507798        2.8889344096        3.7367395975
 O        -3.1220117130        3.5702463547        4.9078920673
 C        -0.5485667590        1.5442640930        6.4275447130
 C        -1.2516613959        3.8836748975        6.8899555751
 C        -3.3053046118        1.5719264035        2.9949345128
 C        -3.6463455426        0.2838830122        2.3103602556
 C        -4.5262468311        0.2366946627        0.9164832952
 C        -3.5862320755       -0.6241455726       -0.0263391053
 C        -4.0196160023       -1.9839903544       -0.3023061492
 C        -5.8653618911       -0.2332764472        1.3368757654
 C        -4.6548694978        1.7690332603        0.4234424800
 O        -3.5930360038       -0.7211690664        2.9452854417
 O        -2.7552435094        0.0214974235       -0.6381044343
 C        -3.8621845229       -2.8652689656        0.9745140004
 C        -3.2621781152       -4.3029563770        0.7343728738
 C        -2.6874975735       -5.1228704606        1.8982470353
 C        -1.0749219635       -5.0619852745        1.6681978964
 C        -0.3426940556       -5.5809346753        0.4156843035
 O        -2.9772167789       -4.6377203619       -0.4116106378
 O        -0.3809467224       -4.6511823888        2.5624302826
 C        -2.9628229524       -4.4764894308        3.2949818385
 C        -3.0218068608       -6.6379603606        1.8663987544
 C         0.9667500068       -4.8191469787        0.1653615232
 C         0.6670617211       -3.3299987068       -0.0926830675
 C         1.7854236241       -2.2448235657       -0.0654508835
 C         2.1490243980       -2.0466556107       -1.6505717533
 C         3.5661882172       -2.0253034946       -2.1394520752
 C         1.2059624116       -0.9474109289        0.6350378686
 C         3.0005741132       -2.5874470012        0.7871078270
 O        -0.4486395207       -3.0115138947       -0.3919496651
 O         1.2746752891       -1.6355588788       -2.4479820586
 C         3.6735433999       -2.8999207334       -3.4395004943
 C         3.1952634377       -4.3856132659       -3.2415574479
 C         2.8413709798       -5.2582252952       -4.4378606919
 C         1.6289468139       -4.5090040208       -5.2061447287
 C         0.1526569448       -4.8836331262       -4.8932605019
 O         3.0836766704       -4.7439615313       -2.0995651504
 O         1.9240811176       -3.7096918633       -6.0772777742
 C         3.9274732836       -5.3588460100       -5.4931881638
 C         2.3127808619       -6.6428637201       -3.9879360007
 C        -0.9243342697       -4.1825986120       -5.6447675780
 C        -1.2562077884       -2.8501398156       -4.8972967447
 C        -1.5023167095       -1.5565244192       -5.7294640022
 C        -1.9464968386       -0.3651166485       -4.6730332215
 C        -1.1070398060        0.8354866453       -4.5168877758
 C        -0.1184168423       -1.3130361784       -6.4096190712
 C        -2.5175570602       -1.7371975313       -6.7993396015
 O        -1.0950487157       -2.8245772065       -3.6963519000
 O        -2.9491339382       -0.5557350774       -4.0561150025
 C        -1.4990257682        1.7202201304       -3.3794928340
 C        -0.2910014916        2.0306178227       -2.5801103590
 C         0.0656727441        3.4139874095       -1.9881957862
 C        -1.0006399563        3.6643947338       -0.9293192348
 C        -0.6939277222        4.1474642058        0.5705829401
 O         0.2812732506        1.0338594387       -2.1386846749
 O        -2.1653586128        3.4013645541       -1.2242678484
 C         1.4858005166        3.4267967917       -1.2646633896
 C         0.0741631513        4.5929005133       -2.9695708478
 H         0.2313355370        8.9467307995        5.2940522049
 H         1.4659265814       10.3801705365        5.0260696888
 H        -0.0179582478       10.3774191904        4.0934755596
 H         0.8930853857        5.8262416225        3.2823111821
 H         2.3262592162        4.7629946298        3.4262346154
 H         3.5329544463        8.4853314186        1.8526075350
 H         2.3733081946        6.8888858197        1.7914570691
 H         4.0459232089        6.8329823911        2.3613033224
 H         3.3467013987        9.0183989462        5.3994399195
 H         4.5422198511        8.2547856748        4.2237826665
 H         3.6663914388        9.7014360089        3.8971807035
 H         1.5549541940        4.5918781708        6.0081350487
 H         0.0786210078        5.4340415848        5.5223138425
 H        -1.2043748698        1.3945394019        3.6266424727
 H        -2.4422826855        0.3368669783        4.5253260768
 H        -1.2866522311        1.4284461139        7.2222705523
 H         0.3996269416        1.5932970939        6.9893763465
 H        -0.4875171620        0.7219986164        5.8287824597
 H        -2.0132988844        3.4855113540        7.6439090007
 H        -0.4029352380        3.9960153729        7.5567262293
 H        -1.6825437024        4.8206143849        6.5211388760
 H        -2.9234095695        2.3523225173        2.4128106700
 H        -4.1935104392        1.8574743868        3.4551898694
 H        -4.9348063049       -2.2025949456       -0.7524952032
 H        -3.2698102910       -2.4086294893       -1.0191820954
 H        -6.6360557490       -0.1954523632        0.5952953344
 H        -6.0729312384        0.3813384145        2.2660398386
 H        -5.8695575143       -1.3126827634        1.5363470743
 H        -5.0040867539        1.8773134219       -0.5960146963
 H        -5.2013312856        2.2972870061        1.2261913022
 H        -3.7250202366        2.3655059753        0.3395996329
 H        -3.2279698549       -2.3291366896        1.6305965032
 H        -4.8086833633       -3.0595553297        1.3729197530
 H        -0.2632369804       -6.6365786690        0.6338897874
 H        -1.0022519231       -5.5365615457       -0.4586627939
 H        -2.6635663259       -5.0618244062        4.1049437131
 H        -4.0649808031       -4.3792169518        3.3976086740
 H        -2.3955043434       -3.5244498624        3.4271698928
 H        -4.0725045756       -6.7161620020        2.2760875668
 H        -2.8951072189       -6.9357562208        0.8733951361
 H        -2.4575347402       -7.2433683445        2.5265883521
 H         1.4571573972       -5.3069351081       -0.7010749142
 H         1.5327616083       -4.8863679473        1.0325250121
 H         3.7134348050       -0.9288092151       -2.3915437343
 H         4.2727691064       -2.3257371865       -1.3605178275
 H         0.4067206217       -0.3785638759        0.2199319141
 H         2.0324582195       -0.2188510103        0.5250441229
 H         1.2053353119       -1.2668257748        1.7028297149
 H         3.6997511631       -1.7021033774        0.8280616965
 H         2.7511978585       -2.7324692743        1.8577104986
 H         3.4422638667       -3.5798985542        0.6151741720
 H         3.1131875298       -2.4662483594       -4.1712927472
 H         4.7646861088       -2.9179600427       -3.7174025343
 H        -0.0333822783       -5.8998253517       -5.0866834023
 H        -0.0390767159       -4.6850480843       -3.8236455466
 H         3.7886675119       -4.6620387388       -6.2622833785
 H         3.8135299646       -6.3085595078       -5.9880993890
 H         4.9533923616       -5.3747361527       -5.1154976892
 H         1.7557845292       -7.1027173376       -4.7614759346
 H         3.0754446500       -7.3296673012       -3.6244254124
 H         1.5219178181       -6.4687275450       -3.2902361688
 H        -1.8422618415       -4.8217706581       -5.7529236425
 H        -0.7060818493       -4.0078225135       -6.7041989091
 H        -0.0878695967        0.4965654399       -4.3792331590
 H        -1.0897822894        1.3776255267       -5.5551399106
 H         0.5899148263       -1.1951453474       -5.6140731629
 H        -0.1160168524       -0.4781969876       -7.0633397389
 H         0.1547218668       -2.1223485984       -6.9512262679
 H        -2.7430050299       -0.9043648754       -7.4810922068
 H        -2.2776356520       -2.4702478126       -7.4751684907
 H        -3.4847736169       -2.0815123534       -6.2319868970
 H        -2.0017088179        2.6323481594       -3.7020603497
 H        -2.3428006104        1.2918529995       -2.7745659125
 H        -1.4208637295        4.9947976146        0.7361960397
 H        -0.8284605028        3.3232439604        1.2707949521
 H         0.2586748082        4.7010753060        0.6083815787
 H         1.6381234459        4.4186978040       -0.8780910803
 H         2.3012247150        3.3187568730       -1.8966142929
 H         1.5476686606        2.6715566848       -0.4715023879
 H         0.5460172736        5.4395426207       -2.4973112670
 H         0.7013697290        4.5114368990       -3.8716773605
 H        -0.9249484574        4.9385295481       -3.3195006241
 Na       -1.0942699985       -1.1733970593       -1.8936844932
