155

 C         0.9509925751       10.5692928114        3.7673715957
 C         1.5164501225        9.1318219966        3.5989340201
 C         2.0572808931        8.1623611711        4.8364691076
 C         0.8820838462        7.2218921724        5.2914136463
 C         0.7005315520        5.8379761557        4.6844404433
 C         3.2151123503        7.3208209409        4.3999450390
 C         2.4930895826        9.1756668943        5.9247738952
 O         1.5842429857        8.7314689965        2.4828514985
 O         0.3158072296        7.4700856440        6.3145341790
 C        -0.7535293962        5.2902659272        4.9077669630
 C        -0.9234091529        3.8380091393        4.5921212409
 C        -2.3430513165        3.1047940878        5.0866886777
 C        -3.1085300564        2.7439074460        3.7553770380
 C        -3.4057506137        1.3154493342        3.2977273610
 O        -0.1469424803        3.2269180766        3.8788234707
 O        -3.5441671463        3.7101004447        3.1325740788
 C        -1.8709934694        1.7806206347        5.8499739329
 C        -3.0904912772        4.0331010514        5.9903150625
 C        -3.7147854829        1.2162827771        1.7925530838
 C        -4.4878343191       -0.0555746298        1.4068715917
 C        -4.5594558655       -0.4806873608       -0.0742773185
 C        -3.1873594271       -1.2090835829       -0.4202038856
 C        -3.1391376684       -2.6555426926       -0.4284126610
 C        -5.8234308456       -1.4260637588       -0.3741147990
 C        -4.7302794843        0.7267564215       -0.9489396022
 O        -5.0504637676       -0.6058836822        2.3525771445
 O        -2.2199134643       -0.4222678485       -0.4316449466
 C        -2.8465483830       -3.2881381169        0.9494867748
 C        -2.7770647955       -4.7896570482        0.6687801417
 C        -2.1184273907       -5.6953076602        1.8673390551
 C        -0.6932767003       -4.9899931671        2.1678286164
 C         0.5268879730       -5.5814640798        1.3794318994
 O        -3.0609932555       -5.1897400525       -0.4502742184
 O        -0.6049857985       -3.9584300633        2.7785147190
 C        -2.8994698740       -5.5362733509        3.1590172331
 C        -2.1455543693       -7.1819896043        1.4000706180
 C         1.6279363398       -4.5006105418        1.3521124540
 C         1.3989810294       -3.2458481638        0.4623315361
 C         2.6283725470       -2.2863772460        0.1854448330
 C         2.7548866090       -2.4237703067       -1.4203095284
 C         3.9050914441       -3.4196774111       -1.9605348290
 C         2.2321725391       -0.8591876222        0.7086076088
 C         3.8471186819       -2.7557995918        0.9370386422
 O         0.3304479449       -2.9546413946       -0.0190830074
 O         2.0181538509       -1.8289199751       -2.2098434933
 C         3.8317755086       -3.5884656529       -3.4745926290
 C         3.2258186555       -4.8986120694       -3.8807543129
 C         2.9190578239       -5.2195731678       -5.3928674065
 C         1.8738806064       -4.1359775614       -5.9433866449
 C         0.4464639807       -4.6003178093       -5.5363491668
 O         2.7325363076       -5.6131500120       -3.0317102059
 O         2.1435777095       -3.1294045263       -6.5318684547
 C         4.1777625224       -5.0160257227       -6.2430561181
 C         2.5704140771       -6.6267432889       -5.3511270275
 C        -0.6543998543       -3.6403644503       -5.8807681745
 C        -0.7424677299       -2.5059273776       -4.8238202054
 C        -1.4911452215       -1.1501245353       -5.3485188844
 C        -1.7369960965       -0.0491287561       -4.1710186016
 C        -0.7382812751        1.1148799703       -4.0314710053
 C        -0.7441723471       -0.6334312476       -6.6017767974
 C        -2.9824190072       -1.3958620810       -5.7285280672
 O        -0.4129415698       -2.6841192624       -3.7055575989
 O        -2.6582058900       -0.2577093694       -3.4069931086
 C        -1.0534599166        2.1978636877       -2.9932997059
 C        -0.0182554816        2.0834542383       -1.7624478308
 C         0.5320143977        3.3429343659       -1.0602832569
 C        -0.8600186143        4.0086496857       -0.4316456784
 C        -0.8946301363        5.5176381708       -0.1140945352
 O         0.2655786252        0.9723457500       -1.3178214372
 O        -1.8158994242        3.2623418657       -0.1798790440
 C         1.5004904430        3.0722036241        0.2270089259
 C         1.2453528693        4.2552549179       -2.0543979955
 H         1.1316418180       11.0654632622        2.7653815217
 H        -0.1758970952       10.3898900748        3.7026434611
 H         1.2231041783       11.1667412545        4.6404761703
 H         0.9908667911        5.6627785676        3.5997520368
 H         1.3273144627        5.1674296468        5.2028458308
 H         3.8816336436        7.9977045764        3.8866751311
 H         3.0302657961        6.4204302723        3.7352810911
 H         3.7258859114        6.8895901855        5.2931343211
 H         1.5989057338        9.4154471476        6.5040319884
 H         3.3344857862        8.7788135609        6.4949474437
 H         2.7496308866       10.1505014952        5.5501632626
 H        -0.9514868631        5.4834582226        5.9993599572
 H        -1.6248537239        5.8275540536        4.4398145529
 H        -2.6036456140        0.6599762208        3.6334180782
 H        -4.1882168135        0.9936093593        3.8594814676
 H        -2.8110109572        1.2358349145        6.0890055731
 H        -1.3176185750        2.0550780691        6.7013061476
 H        -1.3150487418        1.1484855164        5.2348510526
 H        -3.9487088185        3.5108192118        6.3349327061
 H        -2.4411730441        4.3732415683        6.8254323920
 H        -3.4690496754        4.9358290284        5.4721002788
 H        -2.8096178140        1.5379146325        1.2714920199
 H        -4.4100781646        1.9853812218        1.4992186278
 H        -4.0023217167       -3.1217212071       -0.9654478432
 H        -2.3394986499       -2.9646666676       -1.0127736418
 H        -5.8608875885       -2.0742277102       -1.3390844435
 H        -6.7037035419       -0.8426522317       -0.3282325411
 H        -5.9193573164       -2.1414131856        0.4312476741
 H        -4.7455224525        0.4493520155       -1.9930291553
 H        -5.5614957998        1.3215191088       -0.7123391879
 H        -3.8906762090        1.3280901691       -0.7623646183
 H        -2.0021098906       -2.8019553503        1.3953112530
 H        -3.5565192032       -3.3001396652        1.7196101854
 H         0.7792018012       -6.5557145100        1.7501706290
 H         0.2534828783       -5.7531564248        0.3290827007
 H        -2.4029587049       -6.1129147086        3.9342032720
 H        -3.8485354725       -5.9741997403        3.2444663318
 H        -2.9604727663       -4.5297676200        3.4804417341
 H        -3.1360117704       -7.4904400902        1.4333385207
 H        -1.6199396624       -7.3649539836        0.4712830922
 H        -1.7289407294       -7.8730230272        2.1273923868
 H         2.6021293348       -4.9083221276        1.0696928891
 H         1.8232223048       -4.1366489923        2.4610087237
 H         4.8069336946       -2.9287017049       -1.6326116743
 H         3.9027637213       -4.3630429569       -1.3970108710
 H         1.2500854053       -0.5112614379        0.5465524295
 H         2.7087998912       -0.0346337235        0.1880982779
 H         2.4064644627       -0.9626675639        1.7854531152
 H         4.6720099176       -2.0557974130        0.7583993736
 H         3.6645041061       -2.7954016945        2.0462973316
 H         4.1389469148       -3.8142051851        0.6894056786
 H         3.2841690773       -2.7113107318       -3.9324203038
 H         4.8144858032       -3.4715486496       -3.8640763716
 H         0.2754262403       -5.5306669116       -6.1311619236
 H         0.4646029432       -5.0453927132       -4.5178797689
 H         4.2582784287       -3.9378003835       -6.4787343039
 H         4.1951272244       -5.6282870904       -7.1358839962
 H         5.0345472777       -5.3498831699       -5.7029699848
 H         2.2366382792       -7.1614919460       -6.2113991944
 H         3.3670850382       -7.1918770984       -4.9926602891
 H         1.7106077994       -6.7556796572       -4.6403262826
 H        -1.6458270359       -4.0426317933       -5.9250499145
 H        -0.5229809945       -3.1220146225       -6.8103038340
 H         0.2111179051        0.6356946855       -3.7527226576
 H        -0.6173292225        1.4668779387       -5.0473805508
 H         0.2679671762       -0.3504680513       -6.4799371290
 H        -1.2713514375        0.2275588152       -6.8946831554
 H        -0.7518617102       -1.2788145228       -7.3902805830
 H        -3.4765312170       -0.4467178366       -5.9908250346
 H        -3.1157469249       -2.2055149640       -6.4268660457
 H        -3.5163779100       -1.6445716082       -4.6830228892
 H        -0.8146225513        3.1951883722       -3.3629116808
 H        -2.1162601760        2.2281690491       -2.6032798623
 H        -1.7069311896        5.7434604999        0.5798647057
 H         0.0493394111        5.8970166627        0.3128238086
 H        -1.1532208038        5.9223354754       -1.0671056189
 H         1.8157256526        4.0496585948        0.6413960688
 H         2.4333148094        2.4861861555       -0.1157393589
 H         1.0667433904        2.5107114730        1.0363750813
 H         1.1765767726        5.2798261860       -1.7036259913
 H         2.2159977185        3.8705673140       -2.1007410823
 H         0.7842094639        4.2245952209       -2.9775135744
 Na       -0.3866251414       -1.4197411054       -1.6399157133
