155

 C         0.7115555233       10.0771338042        3.6423348916
 C         1.6180780338        8.8167758862        3.6271024025
 C         1.8968644531        8.0857805202        5.0990586285
 C         0.5693453391        7.3012495326        5.2730872069
 C         0.1103675527        6.2129458002        4.3154459831
 C         3.0533915933        7.0522933378        5.0578513781
 C         2.1354080986        9.1486698259        6.2697891682
 O         1.9180964421        8.3446507050        2.5799688572
 O        -0.2674231651        7.7560760552        6.0880189983
 C        -1.2584700829        5.6220682820        4.7729636922
 C        -1.2364447972        4.0911536365        4.4998506500
 C        -2.4520755431        3.1360271026        4.9126695371
 C        -3.2582201960        2.8402208125        3.4348463327
 C        -4.1005064501        1.5934451199        3.1854451812
 O        -0.2983728937        3.5033396441        4.0732904356
 O        -3.3446299452        3.7098278193        2.6133271717
 C        -1.8619276154        1.8119726607        5.5010352246
 C        -3.4254679264        3.8919016771        5.9073227905
 C        -3.8109508884        1.2118959854        1.8131284799
 C        -4.5992831115       -0.0337764672        1.3911280064
 C        -4.6020362868       -0.4873831087       -0.0784070802
 C        -3.1696646636       -1.1629067714       -0.4859321470
 C        -2.9400120145       -2.7258607278       -0.6267129402
 C        -5.7477096947       -1.4201725592       -0.3443380314
 C        -4.7811868169        0.7654647359       -0.9873049577
 O        -5.0496278287       -0.7719486449        2.2319114630
 O        -2.1650696259       -0.4337418574       -0.6128771478
 C        -2.9240460072       -3.4643711784        0.7993703150
 C        -2.6602054467       -4.9976574233        0.6970590940
 C        -2.0476217406       -5.6966639664        1.8855255445
 C        -0.5658112640       -5.2755091912        2.1358245669
 C         0.3330229415       -5.4326215717        0.8698769104
 O        -2.9331636810       -5.5496225075       -0.3562174044
 O        -0.1283140430       -5.0197380589        3.2588275206
 C        -2.8498627976       -5.3792047513        3.1942330153
 C        -2.0446328265       -7.2416763592        1.7612709562
 C         1.6755803597       -4.5901105866        0.8479969375
 C         1.4494965625       -3.1652332187        0.3176818851
 C         2.7282253451       -2.2679582664        0.1204540005
 C         2.9649539460       -2.4308752559       -1.5089815701
 C         4.0535308772       -3.4316801412       -2.0247134772
 C         2.2936039554       -0.8901421734        0.6179419664
 C         4.0038537006       -2.8884030588        0.9247415448
 O         0.3115717114       -2.7419602429        0.1180152220
 O         2.1057630362       -2.0470650538       -2.2872821911
 C         3.8985384507       -3.8371604334       -3.5576982791
 C         3.2224030746       -5.0535852590       -3.8565228479
 C         3.0539039017       -5.1666340839       -5.4945057710
 C         1.9027365095       -4.2321219230       -5.8354453086
 C         0.5117264087       -4.5136978957       -5.1801347796
 O         2.6785766259       -5.8279936116       -3.0972714927
 O         2.1100775722       -3.2887768147       -6.5717876505
 C         4.3005534511       -4.7298152034       -6.3263393143
 C         2.6788391890       -6.7062676833       -5.7399123607
 C        -0.4948803185       -3.5018855424       -5.6074508658
 C        -0.6751415821       -2.3467039280       -4.6036420229
 C        -1.3597174236       -1.0603149982       -5.1692724366
 C        -1.4831140367       -0.0827599467       -3.9808728284
 C        -0.5019382574        1.1297708491       -3.9427134562
 C        -0.6985273526       -0.4837096943       -6.4439721607
 C        -2.8534113740       -1.4493670496       -5.5272791959
 O        -0.3877346299       -2.4747871066       -3.4287157784
 O        -2.4630019029       -0.2071939013       -3.2623172580
 C        -0.8626107172        2.2731173241       -2.9180011029
 C         0.0742961784        2.1619124637       -1.6678990282
 C         0.3840218222        3.4164693834       -0.8226866780
 C        -0.9077289609        4.1927604057       -0.3576482967
 C        -0.7543308235        5.7880483696       -0.3400611582
 O         0.6423403757        1.1034100800       -1.3766662364
 O        -1.9188361974        3.6805966343        0.0050423994
 C         1.2446963422        3.0773916130        0.3763113911
 C         1.2253338986        4.2890516471       -1.8004588130
 H         0.3432131145       10.3529534604        2.6700749480
 H        -0.1416931872        9.7960957827        4.1969160120
 H         1.1879495856       11.0122569520        4.0407725546
 H        -0.1244221119        6.7659568510        3.3112741958
 H         0.7888624176        5.3950368173        3.9911696414
 H         3.9613799039        7.5169795058        5.0462233402
 H         3.0002472656        6.4346181740        4.1676415675
 H         3.0285562799        6.4402706224        5.8916242326
 H         1.3367268287        9.9612870776        6.2553689779
 H         1.9455864979        8.7476772954        7.2771128757
 H         3.1484239687        9.5638711711        6.2123770847
 H        -1.4724462304        5.8130607359        5.8815302693
 H        -2.1760008323        6.1554934509        4.3338202344
 H        -3.9028048932        0.7994308593        3.9472478123
 H        -5.1276001275        1.8326190515        3.3216211947
 H        -2.5938850625        1.1850055828        6.0713654081
 H        -1.0421314281        1.9916883066        6.2487209522
 H        -1.5763074099        1.2930906663        4.6305610633
 H        -4.3466639341        3.4116993177        6.0556757732
 H        -2.9272808502        3.9646810824        6.8685365848
 H        -3.5019584345        4.9144468975        5.6365903048
 H        -2.7156571169        0.9812899598        1.7701008767
 H        -3.8227293864        2.0829015428        1.1524569753
 H        -3.5769196850       -3.2190546639       -1.4406768866
 H        -1.9744863578       -2.8946503117       -1.0538554991
 H        -5.9084918783       -1.4451605576       -1.4525092038
 H        -6.6942319629       -1.1311622373       -0.0296935394
 H        -5.6092861930       -2.3452060163        0.1588785499
 H        -5.0675649173        0.3419245248       -1.9406976255
 H        -5.6268958621        1.3818637991       -0.7641665919
 H        -3.9048480546        1.3793291035       -1.0576647784
 H        -2.1104733403       -2.9800996622        1.3987111760
 H        -3.7973908733       -3.3200225226        1.4166341029
 H         0.6656692422       -6.4674014533        0.8309140216
 H        -0.2706935876       -5.2987576943       -0.0327580779
 H        -2.5781084010       -5.9544287389        4.0273506163
 H        -3.9256049614       -5.4127837146        3.0814900381
 H        -2.7499963234       -4.3309873298        3.4402678787
 H        -3.0727840137       -7.5921709696        2.0563487691
 H        -2.0409281281       -7.5880428099        0.7360908485
 H        -1.2595516134       -7.7248585887        2.3637834109
 H         2.4980153228       -5.0845824116        0.4210901931
 H         1.9074793359       -4.4939388742        1.9797010954
 H         5.0480710049       -3.1666737023       -1.6963185021
 H         3.8138680386       -4.3197405818       -1.3783306564
 H         1.3938042576       -0.6182555095        0.1034695886
 H         2.9901441964       -0.0958813296        0.3341740071
 H         2.0726350738       -0.8455257402        1.6675232618
 H         4.9051850943       -2.4877549378        0.4830568553
 H         4.0480645184       -2.5502325592        1.9274839019
 H         4.1014249963       -3.9319269655        0.7565254253
 H         3.2272406730       -3.1667819719       -4.0830434017
 H         4.8986804243       -3.8496170509       -3.9641361148
 H         0.2002602471       -5.4761472697       -5.6008891148
 H         0.6199766722       -4.6211163600       -4.1004458524
 H         4.6328625871       -3.7269902094       -6.0401198711
 H         3.8863058750       -4.6735973737       -7.3853037681
 H         5.0808676147       -5.5227394985       -6.2911386093
 H         2.4654505524       -6.9004779434       -6.8145131731
 H         3.5558738390       -7.3759218491       -5.6662401652
 H         1.9634808753       -7.2205650794       -5.0692067248
 H        -1.5254647553       -3.8393425192       -5.6877836176
 H        -0.2513260495       -3.0398583219       -6.5723575566
 H         0.5033429446        0.6322365195       -3.6770493190
 H        -0.2981146269        1.5129813955       -4.9423964815
 H         0.2489531014       -0.0727345185       -6.2820201490
 H        -1.2459101604        0.3085200359       -6.9087890382
 H        -0.5711956718       -1.2425980579       -7.2244369857
 H        -3.4813175085       -0.5374997540       -5.7998369686
 H        -2.7119081618       -2.1634161645       -6.3027889394
 H        -3.3474384620       -2.0287247612       -4.7392922215
 H        -0.6749543309        3.2298303515       -3.4242853779
 H        -1.9556160719        2.3389580089       -2.6313952159
 H        -1.7160536933        6.2213481500       -0.0562395112
 H         0.0081137062        6.1441414087        0.2841500748
 H        -0.5956956168        6.0141948128       -1.3358867251
 H         1.5525819891        3.9749015961        0.9175556116
 H         2.1138356106        2.4439885236        0.0610482428
 H         0.6931161672        2.4627382112        1.0966723763
 H         1.8994889118        5.0058122763       -1.2499651520
 H         1.7951180315        3.5897668153       -2.3908891387
 H         0.5228902216        4.7863683626       -2.4569563639
 Na       -0.1271970930       -1.0967752406       -1.6357572392
