155

 C         0.9707192099       10.2901105171        5.2772814086
 C         0.4411298942        8.7804830474        5.0480843035
 C        -0.4694953421        8.0543630005        6.1707256539
 C        -1.7420183206        7.4719784303        5.4291180391
 C        -1.5259494555        6.1548731639        4.6621441051
 C         0.3605217294        6.8535274617        6.8289377694
 C        -0.7625802032        9.0478656850        7.3902404564
 O         0.6753021596        8.2110903364        3.9921338253
 O        -2.7616312440        8.0742917424        5.3627619772
 C        -3.0078104523        5.6070605322        4.0884032015
 C        -3.1538299604        4.1204420683        4.3449498110
 C        -4.4540850995        3.3073885682        3.9969112288
 C        -4.2190992788        2.6673313460        2.5413752228
 C        -2.8251460922        1.9452587856        2.2875727353
 O        -2.1604857353        3.4853747864        4.6634551442
 O        -5.2474478829        2.5816011617        1.8561552925
 C        -4.5191452777        2.1392497237        5.0231962006
 C        -5.7278023362        4.0913327004        4.0282471124
 C        -2.9117410154        1.1209179764        0.9870409238
 C        -3.7605041483       -0.1994382806        1.1576166848
 C        -4.3399084034       -0.8641366793       -0.1837479785
 C        -3.1478189437       -1.6937416405       -0.7273804150
 C        -2.9911893649       -3.1590240818       -0.6567037253
 C        -5.5934393489       -1.6640574401        0.3145942176
 C        -4.8434087686        0.1207869518       -1.2471874299
 O        -3.7865107118       -0.7475775340        2.2677100903
 O        -2.1603534762       -1.0177097570       -1.1868898785
 C        -2.5082502179       -3.5309081824        0.7292899693
 C        -2.4091087639       -5.1651434200        0.8977903316
 C        -2.0118721928       -5.6658288932        2.2922760741
 C        -0.3149449748       -5.4078417464        2.3668387453
 C         0.4249863697       -5.9925025864        1.2547593890
 O        -2.6374577615       -5.9374374816       -0.0313783157
 O         0.2099918739       -4.9139873398        3.3383690916
 C        -3.0956004215       -5.1427382102        3.3572681634
 C        -2.0938894962       -7.2383213320        2.2888614753
 C         1.7985153831       -5.3252728791        1.0052590834
 C         1.6006888821       -3.8766675983        0.4685169684
 C         2.8037931413       -2.8314002903        0.5094400112
 C         3.1793939369       -2.6640609986       -0.9707954414
 C         4.5424269273       -3.1793237350       -1.5311746301
 C         2.2034327256       -1.3933153956        0.9834924822
 C         3.9766311406       -3.2262276371        1.4029680773
 O         0.5123393877       -3.4561868889        0.1150509463
 O         2.4601586073       -1.9242206177       -1.6562629247
 C         4.5713451898       -3.0680279232       -3.1177838911
 C         3.7062050399       -4.2161814191       -3.7932988287
 C         4.0607599188       -4.6919949775       -5.2491029563
 C         3.3958492090       -3.6503222340       -6.2239577410
 C         1.8949498549       -3.7215706467       -6.5775198824
 O         2.6803391168       -4.5888851726       -3.2653737982
 O         4.0400036172       -2.6487911001       -6.4757187530
 C         5.5868447045       -4.6703591434       -5.6524701297
 C         3.4011846076       -6.0826446932       -5.5226316687
 C         1.2412770443       -2.2968324315       -6.7461044095
 C         0.5943956603       -1.6871452677       -5.4517799533
 C        -0.3618825196       -0.4811528875       -5.6892429854
 C        -0.1865876770        0.4676434504       -4.4427871501
 C         1.2356880374        1.2136050626       -4.2036296294
 C         0.0609980032        0.3759559933       -6.8901963737
 C        -1.8156861863       -1.0312845152       -5.8005022742
 O         0.8213402172       -2.1609410063       -4.3731078036
 O        -0.9800296649        0.5273699427       -3.5831442150
 C         0.9368009100        2.2410031294       -3.1257887682
 C         0.6478087041        1.8266997050       -1.6549069382
 C         0.6977561723        2.9931926146       -0.5693424175
 C        -0.5828798165        3.8133414312       -0.7964287453
 C        -0.9591966271        4.9254306299        0.3057331275
 O         0.6763019927        0.6751984804       -1.2399373288
 O        -1.1225258406        3.7713760151       -1.8919735274
 C         0.7597179765        2.4080024356        0.8373443721
 C         1.8632872819        4.0398735834       -0.8876666828
 H         1.1069405417       10.6893632819        6.3179009374
 H         1.9237119201       10.4907472411        4.6955758155
 H         0.2709397168       11.0368978059        4.8040001864
 H        -0.8729639542        6.4559099239        3.8237853879
 H        -0.9518120011        5.4232509855        5.2351138977
 H         1.3629705993        7.3133892447        7.2116380106
 H         0.5875621979        6.0817808679        6.0859649999
 H        -0.1905370341        6.4634085200        7.7514011388
 H        -1.0738429992        9.9713525512        6.9507551829
 H        -1.4836377637        8.6357977033        8.0996287650
 H         0.1201846646        9.1757852999        8.0607350793
 H        -3.8883956522        6.1122165534        4.5465532011
 H        -2.9328176062        5.7528470485        2.9502545844
 H        -2.0744240298        2.7379883834        2.2727757829
 H        -2.7528349206        1.2566309756        3.1969115920
 H        -4.9426219479        2.6486857291        5.8927041698
 H        -3.4065859168        1.8716761745        5.2342338198
 H        -5.1103389856        1.3089472075        4.6596054948
 H        -6.6068256947        3.6071044440        3.5726048970
 H        -5.9021264412        4.3878048273        5.0507513679
 H        -5.6722606235        4.9990767475        3.4552163665
 H        -1.8183169893        0.8251463174        0.6506091552
 H        -3.4247606938        1.8204012816        0.2711757982
 H        -3.9500335103       -3.7654566846       -0.8941303279
 H        -2.3573753491       -3.5053145297       -1.5224484060
 H        -6.1290425136       -2.0920303163       -0.5043658769
 H        -6.2128437773       -0.8441538873        0.7160123623
 H        -5.4747257400       -2.3441216800        1.1446743390
 H        -5.0377626910       -0.5206392477       -2.1536001652
 H        -5.7519175320        0.5876843997       -0.8919763132
 H        -4.0613223932        0.7833099626       -1.5446383506
 H        -1.3996356610       -3.1807488237        0.8634932408
 H        -3.1784536438       -3.1042587492        1.4555498531
 H         0.6570234997       -7.0178477426        1.4659770259
 H        -0.1996193647       -5.9565672600        0.3263943438
 H        -3.9402184997       -5.7883272561        3.3583504571
 H        -3.4740796847       -4.1459800988        3.1522124488
 H        -2.6915660952       -5.2158118862        4.3633242352
 H        -3.0166625965       -7.6143972361        1.8474475523
 H        -1.3003186759       -7.9064091335        1.9618073433
 H        -2.1930545359       -7.5164434000        3.3412276164
 H         2.2547629127       -5.9017092836        0.1460885437
 H         2.4089029581       -5.4753157553        1.8214698543
 H         5.3363980280       -2.5856367799       -1.1070252883
 H         4.7202647059       -4.2223871834       -1.1915933595
 H         1.3155091588       -1.5036636488        1.5597276800
 H         1.9235493731       -0.7473089224        0.1925460554
 H         2.9553080700       -0.7844116246        1.5268809337
 H         4.7822380728       -2.5410422994        1.5728564539
 H         3.7794088031       -3.3810023400        2.4648243744
 H         4.3737157340       -4.2448371840        1.2904548130
 H         4.0590235803       -2.0648756374       -3.2892437831
 H         5.5410937030       -3.1187811111       -3.3160129246
 H         1.8526500381       -4.1025494557       -7.6216170422
 H         1.1807824377       -4.3360560200       -6.0267632882
 H         5.9917617877       -3.6088440240       -5.7392613843
 H         5.6765220149       -5.0218671928       -6.6624882536
 H         6.2385679166       -5.2303384444       -4.9558439919
 H         3.4233695156       -6.3272394297       -6.5778497550
 H         3.9258267546       -6.8892966599       -5.1213040549
 H         2.3128596760       -6.1386200501       -5.1887695283
 H         0.4886618170       -2.3867730475       -7.5308402994
 H         2.1011698009       -1.6860011458       -7.1991852510
 H         1.9451534533        0.4306918847       -3.8249570063
 H         1.5796589207        1.7638406065       -5.0237956539
 H         1.1088497600        0.8413944135       -6.7939168232
 H        -0.6690886296        1.2003772497       -6.9096231034
 H         0.0094975687       -0.2965797891       -7.8205671884
 H        -2.5127709992       -0.2330930485       -5.8650749235
 H        -2.0366168479       -1.5624020935       -6.6958749532
 H        -2.0662461901       -1.6599380381       -4.8694070547
 H         1.7809330501        2.8811102025       -3.0455468213
 H         0.1378410591        2.9226900484       -3.4408308118
 H        -0.1949452374        5.7260074657        0.5192698897
 H        -1.8931112509        5.3841645744        0.1023212649
 H        -1.0266974081        4.4529572844        1.2429538137
 H         0.6911087904        3.1080884268        1.6648494800
 H         1.7749642388        1.9131268855        0.9308932084
 H         0.0189713943        1.6305566937        0.8565889903
 H         2.0290820689        4.7332250468       -0.0856878895
 H         2.7975700899        3.4787020943       -1.0203808452
 H         1.5261102218        4.6072287563       -1.7670612156
 Na        0.0407935195       -1.5183540459       -2.1045327921
