155

 C         0.3140690965       10.2616035318        5.2003872316
 C        -0.1351560876        8.8174771800        5.0862305147
 C        -0.7587505952        8.0829186345        6.3186548603
 C        -1.9611779493        7.3284049159        5.7198664308
 C        -1.6480397577        5.9087191344        5.0444575935
 C         0.3452968401        7.1352571013        6.9031645792
 C        -1.2033248941        9.1214330610        7.4045908263
 O         0.0352714886        8.2393014573        4.0016653390
 O        -3.0152459992        7.8804478719        5.8031698379
 C        -2.9362575319        5.3193499405        4.5795461976
 C        -3.2718543491        3.7566053039        4.5887855382
 C        -4.6431829060        3.3075039690        3.8622558482
 C        -4.3474382973        2.5229269976        2.5542702477
 C        -3.2167783245        1.4466177404        2.4137666887
 O        -2.4285474033        2.9736730870        4.9379696630
 O        -5.0538278900        2.8288330104        1.5639704557
 C        -5.2827463667        2.3304113851        4.8597286317
 C        -5.6284252126        4.4685522550        3.5162598038
 C        -3.2194230738        0.9148875150        0.9772585867
 C        -3.6123528030       -0.5216045463        0.8453117322
 C        -4.0852890183       -1.1527533468       -0.5389167578
 C        -2.8198503256       -1.8124819456       -0.8269671909
 C        -2.7227273271       -3.3233086972       -0.7944227315
 C        -5.2603373246       -2.0026839537       -0.2519226786
 C        -4.3729891315       -0.1545103068       -1.7104006142
 O        -3.5602972491       -1.2572921968        1.8427269076
 O        -1.9029281531       -1.1469067998       -1.2172578520
 C        -2.6721736743       -3.8433466703        0.7303924756
 C        -2.6708191217       -5.4264778455        0.8695648303
 C        -2.3374388136       -5.8289735638        2.2956431303
 C        -0.7485028873       -5.3298875765        2.4823833783
 C         0.1892036103       -5.4390538544        1.2850533144
 O        -2.8320481045       -6.1215515700       -0.0926996238
 O        -0.4643823473       -5.0391495879        3.6505458316
 C        -3.0702890712       -5.1848087292        3.4300317011
 C        -2.1742091394       -7.2982180562        2.3549580458
 C         1.5581511126       -4.8293254270        1.2576238101
 C         1.6026850916       -3.4953469938        0.4499126881
 C         2.8079745588       -2.4542146891        0.5416317713
 C         3.3168710858       -2.5135284897       -0.9730764874
 C         4.4040339872       -3.6433907722       -1.3860237694
 C         2.1823821130       -1.0647351615        0.8564617555
 C         3.8599900395       -2.8532400811        1.5854149940
 O         0.6808025721       -3.2430978957       -0.3247749943
 O         2.9387159635       -1.7743871940       -1.8155879282
 C         4.8530333806       -3.6268338658       -2.8709094675
 C         3.9475476580       -4.4140719742       -3.8203389544
 C         4.2920403521       -4.4603846995       -5.3717207413
 C         3.2597570353       -3.5708243340       -6.2217879818
 C         1.8269896907       -3.8447767000       -6.1243539101
 O         2.9623460109       -5.0569957988       -3.4974142638
 O         3.6665028959       -2.5783769459       -6.7851217408
 C         5.6507921235       -3.8623946311       -5.5747969562
 C         4.3177898850       -6.0073111324       -5.7292778314
 C         0.9182847191       -2.6397787647       -6.4435929605
 C         0.6190589401       -1.7408086933       -5.2153495585
 C        -0.2210914219       -0.3885126756       -5.5881722327
 C        -0.2206973893        0.5329924427       -4.3740817411
 C         1.0459112799        1.2555766179       -4.0592091611
 C         0.2635145961        0.2806376039       -6.9482035215
 C        -1.6288822495       -0.9010993260       -5.7865020402
 O         0.9392234373       -2.1338550452       -4.0977999777
 O        -1.1395389664        0.3743760300       -3.6141243188
 C         0.7726200474        2.4125625032       -3.1379661537
 C         1.0180143882        2.0684555363       -1.6669659590
 C         1.0494924657        3.2524007420       -0.7018134735
 C        -0.1897970241        4.1865044380       -0.8512541094
 C        -0.3150125207        5.3603336518        0.0772904295
 O         1.0996702234        0.9067852210       -1.2207038490
 O        -1.0770876608        3.9814602365       -1.6225110786
 C         1.1273344755        2.6180295924        0.7548165797
 C         2.3893896347        4.0331208098       -0.8554295642
 H         1.2103817250       10.2986740101        5.6993070788
 H         0.4917992582       10.6698620040        4.2415304492
 H        -0.3489228548       10.9916608754        5.6982182021
 H        -0.8145052238        5.8563643396        4.2711742762
 H        -1.2078617102        5.3736906804        5.9215593680
 H         1.2396471192        7.6579099099        7.3964182479
 H         0.7994347109        6.4562152215        6.1579200857
 H        -0.2374383136        6.4351172589        7.6255353192
 H        -1.8652728068        9.9151141838        7.0247693306
 H        -1.8469701944        8.5252681976        8.1000029830
 H        -0.3058351378        9.5060850126        7.8813440591
 H        -3.8285518061        5.8607313840        5.1095362298
 H        -3.0810834821        5.7095641120        3.5015206768
 H        -2.1995268459        1.8909543987        2.7127893625
 H        -3.2417486417        0.6061827054        3.0950654152
 H        -5.9261827559        3.0247278798        5.4820325618
 H        -4.3954261411        1.7555553508        5.3033825260
 H        -5.9932226429        1.6902819804        4.3935604803
 H        -6.5103486245        4.0766306443        3.1015673388
 H        -5.9609319087        4.9621460611        4.4378801041
 H        -5.1465336852        5.2638548875        2.9877254846
 H        -2.2916499462        1.0445580174        0.5477463938
 H        -3.7799080698        1.5669867293        0.2829560984
 H        -3.6008666828       -3.7194271273       -1.2442693271
 H        -1.7403513244       -3.5939772444       -1.2769475722
 H        -5.3826271744       -2.6165109650       -1.0897752267
 H        -6.1812346930       -1.3776071967       -0.1761865539
 H        -5.1280062934       -2.6644765101        0.6106616069
 H        -4.5957734114       -0.6751279014       -2.6155915192
 H        -5.2238548125        0.4064623271       -1.4435544916
 H        -3.4864500575        0.4244128988       -1.7771494943
 H        -1.7284436230       -3.4998536197        1.1659651847
 H        -3.3993861449       -3.3293806452        1.4102543163
 H         0.1297803235       -6.4678908066        0.9353641609
 H        -0.2220101599       -4.9616730679        0.4487756725
 H        -2.4187042323       -4.8419289090        4.2504353947
 H        -3.6464517075       -5.9866687754        3.9227091703
 H        -3.6684661514       -4.3845566383        3.2368342302
 H        -2.9758601281       -7.7645393067        2.7675219117
 H        -1.9518173386       -7.7880637305        1.4015529879
 H        -1.4283418810       -7.6288816782        3.0984998236
 H         2.2181949471       -5.4826852801        0.8170049807
 H         1.7844704689       -4.6245915404        2.3335514109
 H         5.1945215933       -3.6603273856       -0.6136861766
 H         3.8590528688       -4.5313903345       -1.1561590649
 H         1.7292145289       -0.6135781952        0.0079666937
 H         2.9170035692       -0.4037620452        1.2816561903
 H         1.2671130284       -1.1929895030        1.3972975381
 H         4.8102286049       -2.4053320628        1.5636725563
 H         3.4995988237       -2.7458634419        2.5865282629
 H         4.2860472780       -3.7743390318        1.5691448466
 H         4.7028854087       -2.5424880986       -3.1202707878
 H         5.9003802710       -4.0034591729       -2.9029114617
 H         1.5249717386       -4.6918610063       -6.7766632686
 H         1.5529103081       -4.2655666503       -5.1031873426
 H         5.7930898584       -3.0390273795       -4.9367802096
 H         5.9053623983       -3.6969516822       -6.6209442049
 H         6.4640412590       -4.5286107019       -5.3283739926
 H         4.0433337271       -6.2667022046       -6.7322262268
 H         5.2501027829       -6.4685812783       -5.4095416760
 H         3.5331336417       -6.4817600097       -5.1868549042
 H        -0.0423863468       -2.9913901973       -6.9087512101
 H         1.3369970981       -2.0439339930       -7.2323852346
 H         1.5560584832        0.4844984308       -3.6240435607
 H         1.5633661983        1.5565565636       -4.9762900642
 H         1.3256515837        0.4599345541       -6.9029040131
 H        -0.2663266330        1.1756041338       -7.2688602333
 H         0.0711252685       -0.4149924516       -7.8527401193
 H        -2.4254483537       -0.0844592926       -5.9573815747
 H        -1.5488956491       -1.6638300340       -6.6262854583
 H        -2.1254376954       -1.4577677962       -5.0050628607
 H         1.5809994708        3.2003744673       -3.3005176333
 H        -0.1942436945        2.9113267732       -3.2162794914
 H         0.6744030761        5.6903789568        0.3804071791
 H        -0.7423668762        6.2744110125       -0.3455870506
 H        -0.8285875512        5.1173417893        1.0259718638
 H         0.9962491091        3.5079245802        1.4633135717
 H         2.0361947611        2.0554361888        0.9106884952
 H         0.2663869522        1.9813748727        1.0553530218
 H         2.4216279806        4.7194247610       -0.0324441991
 H         3.1425080518        3.3037822166       -0.7215254282
 H         2.5563561792        4.4986422074       -1.8444507617
 Na        0.2670552374       -1.3034910993       -2.1149518984
