155

 C        -2.8546073608        8.2563375121        4.2003572720
 C        -1.6587635846        7.9249203419        5.0245198961
 C        -1.8425366865        7.5384786394        6.5217746239
 C        -2.9849824780        6.5587883490        6.6532270897
 C        -2.9564180539        5.2181687992        5.7079579520
 C        -0.5067746896        6.9317935867        6.9757129110
 C        -2.1655468167        8.8217528974        7.2015202608
 O        -0.5439344671        7.9252667921        4.5375522022
 O        -3.9650452781        6.8502038006        7.2842958503
 C        -4.2105219510        4.9426642188        4.8900476172
 C        -4.4540117467        3.4356202597        4.5506718700
 C        -5.7358821189        3.0998510076        3.8509829629
 C        -5.2138223488        2.4990004810        2.4953407691
 C        -4.8201558367        0.9983123445        2.3831646756
 O        -3.7068888110        2.6004436963        4.9354387406
 O        -5.0154366326        3.1743453720        1.5208267929
 C        -6.6433877964        2.2037905716        4.6912494887
 C        -6.5964781312        4.2974841336        3.5097651471
 C        -4.0832275048        0.7736235908        0.9982795137
 C        -4.8119115055       -0.3264664239        0.1852649968
 C        -4.2636175458       -0.6403521391       -1.3833240546
 C        -2.8694414581       -1.1329832372       -1.2637276650
 C        -2.5185374499       -2.6001307362       -1.1064775905
 C        -5.2521882686       -1.6632429968       -1.9982077205
 C        -4.3104190679        0.6898770587       -2.1257393942
 O        -5.5909694034       -1.0522919837        0.7173486289
 O        -1.9737978816       -0.2965623659       -1.0937341579
 C        -2.9843345082       -3.3950770865        0.1460548000
 C        -2.3923220462       -4.8096455508        0.2138079705
 C        -1.9976210230       -5.5050085595        1.5701693070
 C        -0.3896774194       -5.0804028129        1.5707959694
 C         0.4933132841       -5.5997319436        0.5191784841
 O        -2.1500592414       -5.3825141995       -0.8194882873
 O         0.0725031195       -4.4088145358        2.5027308516
 C        -2.8983240592       -4.8894734758        2.6550165350
 C        -1.9547896111       -7.0677581215        1.5202356491
 C         1.9246588555       -4.9719961307        0.4359086156
 C         1.8366512704       -3.4340766802        0.1272928073
 C         2.9908053471       -2.3989710879        0.3987589062
 C         3.5286906432       -1.8385397959       -0.9775848553
 C         5.0847399762       -1.9061285124       -1.2903384148
 C         2.4237563563       -1.1611239673        1.1754892492
 C         4.1526607960       -3.1035109209        1.2463184541
 O         0.6495101231       -3.0590935217       -0.1939724240
 O         2.7272988409       -1.5320791060       -1.8551607593
 C         5.5340936093       -2.1048788732       -2.7160767527
 C         5.4167415297       -3.5431499662       -3.2339659888
 C         5.1259903970       -3.7531911387       -4.8006103470
 C         3.5221719785       -3.3497768879       -4.8592152003
 C         2.3787269555       -4.4470040661       -4.5889656840
 O         5.3808734373       -4.5150281748       -2.5367646588
 O         3.2758890794       -2.1508887738       -4.8239322378
 C         5.8829768433       -2.7982941575       -5.7288845388
 C         5.3730763017       -5.2155535169       -5.1345599066
 C         1.0899629081       -3.7753254216       -4.9937419195
 C         0.7132983420       -2.4773929457       -4.2262021553
 C        -0.0119861914       -1.3177529543       -4.9365785854
 C         0.1487626356        0.0912583917       -4.2216561235
 C         1.5977534445        0.5997307230       -4.0610363251
 C         0.3933450783       -1.0820362290       -6.5226669450
 C        -1.5195109894       -1.6874400140       -4.9114999215
 O         0.4900560069       -2.5477693367       -3.0151613593
 O        -0.8340656002        0.6144787561       -3.8181617163
 C         1.9424237661        1.9091361470       -3.3152798898
 C         2.1547255790        1.7492492786       -1.8652801382
 C         2.5404308897        3.0195689790       -1.0340322218
 C         1.3304614410        4.0882739719       -1.0639428689
 C         1.2559829157        5.3587961895       -0.2262949009
 O         1.8061970490        0.7411113629       -1.2836462273
 O         0.5328886668        3.9113773228       -1.9673247611
 C         2.7615950745        2.6263876199        0.4002811687
 C         3.7041945550        3.7927474902       -1.6993348981
 H        -3.8732465001        8.2686049732        4.7202043652
 H        -2.8042288464        9.2350842687        3.6536415154
 H        -3.0214236352        7.4622869786        3.4692252613
 H        -2.0931071267        5.1274690721        5.0078262832
 H        -2.8690316948        4.3518932328        6.4748452062
 H         0.1340998167        7.7340543308        7.2932500698
 H         0.0594888754        6.3925009266        6.3131599641
 H        -0.6869372130        6.3650461555        7.8886473722
 H        -2.7326082803        9.4240626212        6.4869545692
 H        -2.7509812551        8.7111624468        8.1074539940
 H        -1.3453662626        9.4583876761        7.4435797364
 H        -5.0855493368        5.1663977503        5.5741842492
 H        -4.3851901224        5.7352957594        4.1277846800
 H        -4.2681201204        0.6965295654        3.3388234946
 H        -5.7746592396        0.3971711563        2.4909252723
 H        -6.9567674243        2.6210266337        5.7182699605
 H        -6.2328655241        1.1845573317        4.9579289022
 H        -7.4853173787        1.9133900491        4.1490312976
 H        -7.4744183994        3.9985396269        2.8988233405
 H        -6.9829096044        4.6939800583        4.4245703240
 H        -6.0665016178        5.0071018191        2.8587176231
 H        -3.0813943357        0.4878972040        1.2596521173
 H        -4.0944022207        1.7710318850        0.4778248621
 H        -2.9207836900       -3.1937657980       -1.9278155068
 H        -1.4512461746       -2.6829304472       -1.0351409198
 H        -4.8953273026       -1.8522139642       -3.0664363004
 H        -6.1966776431       -1.1762706589       -2.0018294540
 H        -5.4317499376       -2.5908916911       -1.4691290341
 H        -3.7950891645        0.6807522527       -3.1000206261
 H        -5.3059222562        1.2248538470       -2.2468996147
 H        -3.6092009307        1.4421547191       -1.5997498120
 H        -2.6874285621       -2.8816933205        1.1076582845
 H        -4.0867755521       -3.4822674411        0.2331419008
 H         0.5096511586       -6.6334615448        0.5192415947
 H         0.0058916165       -5.4046842472       -0.4731893940
 H        -2.1470685587       -4.3456348450        3.2804610035
 H        -3.4737931005       -5.6640515600        3.2160615491
 H        -3.6411235323       -4.1428515440        2.3059753697
 H        -2.8718234580       -7.4580724216        1.9156722274
 H        -1.8376470653       -7.3957252563        0.4678959515
 H        -1.0889521478       -7.2983509619        2.1911624675
 H         2.3804903853       -5.4366651519       -0.4622444473
 H         2.5030849013       -5.0939926607        1.3219084154
 H         5.5025803884       -0.9135457460       -1.0149959787
 H         5.4238190433       -2.7063325805       -0.6478617164
 H         1.5782050816       -1.5353019853        1.7981854432
 H         2.0608690303       -0.3585026991        0.4628945438
 H         3.2535073103       -0.7940134676        1.7436979523
 H         4.9246522586       -2.3384170409        1.2598819891
 H         3.8345411192       -3.3998199931        2.2881264275
 H         4.3156117241       -4.0104847646        0.6864437179
 H         5.1141172636       -1.5086601658       -3.3904733855
 H         6.6740215581       -1.9685922150       -2.7177614875
 H         2.5947821745       -5.3385813509       -5.2587323661
 H         2.3819979136       -4.7650352157       -3.5256027665
 H         5.5034864504       -1.8098921334       -5.5494516902
 H         5.7008268195       -2.8101477299       -6.8408758755
 H         6.9500007781       -2.7965577096       -5.5076262634
 H         5.1765383940       -5.3666080248       -6.2084533777
 H         6.4934644544       -5.5001933214       -5.0680513760
 H         4.7703604961       -5.7415378381       -4.4344497721
 H         0.2277987661       -4.4216000092       -5.0972959202
 H         1.1361757566       -3.4388218956       -6.0905807997
 H         2.2386500388       -0.2374583922       -3.6191510865
 H         1.8471215231        0.7696552486       -5.0655857977
 H         1.4795479088       -0.7743369531       -6.5747473801
 H        -0.2301204931       -0.2745374509       -6.8734893632
 H         0.1690247880       -2.0594185696       -7.1029637686
 H        -2.0929285576       -1.0185324045       -5.5576080886
 H        -1.7983544151       -2.6595853295       -5.3342600169
 H        -2.0461091786       -1.6553019059       -3.8464411695
 H         2.8809395129        2.2516510507       -3.7878655455
 H         1.2831302830        2.7392996419       -3.5288028471
 H         1.9515077287        6.0589383296       -0.6093365239
 H         0.2708055088        5.8306513122       -0.2562094846
 H         1.5149845244        5.1003187297        0.8221201110
 H         3.5411734168        3.2180645917        0.8794557802
 H         3.0718499955        1.6379017805        0.4272349243
 H         1.8351029670        2.6833369816        0.9372705300
 H         4.0297936892        4.5586451131       -0.9496637894
 H         4.6511619483        3.2071128250       -1.7620456981
 H         3.5173130806        4.2282304170       -2.6347953188
 Na        0.3058942801       -0.9985033881       -1.4515956563
