155

 C        -2.9291858534        8.3198248899        4.1316612275
 C        -1.6980225417        7.8753156482        4.8895611916
 C        -1.9609223360        7.5705861255        6.4823586683
 C        -3.1224381187        6.4772274797        6.5873971601
 C        -2.9649605950        5.3193060276        5.6406683478
 C        -0.7540735228        6.7992673413        7.0701421810
 C        -2.1809499818        8.7723474829        7.3226560497
 O        -0.6358770409        7.7189469285        4.3557897486
 O        -4.0411834993        6.4466715108        7.3946935509
 C        -4.3185052139        5.0115557345        4.8780324720
 C        -4.6408683025        3.5447497832        4.6862783047
 C        -5.9345326747        3.0869567463        3.9238277609
 C        -5.2924420984        2.5196527445        2.5250349456
 C        -4.6036245052        1.1504622286        2.3939514929
 O        -3.9454572237        2.6174402640        5.1467377495
 O        -5.2550089331        3.3199160050        1.6123832211
 C        -6.7518677749        1.9717101582        4.5763223728
 C        -6.8628838780        4.2693633830        3.5283913821
 C        -4.0616160260        0.7738443301        1.0452133572
 C        -4.6917095333       -0.3799266265        0.3179078986
 C        -4.2454367640       -0.4981702334       -1.4006183000
 C        -2.9032732886       -1.1186450920       -1.4525913035
 C        -2.7359377373       -2.6990637988       -1.5557320421
 C        -5.4033237935       -1.4053223875       -1.9679329946
 C        -4.3770947304        0.8523957625       -2.0838271135
 O        -5.4475736905       -1.2320256012        0.7636713565
 O        -1.8652928625       -0.4868816134       -1.2754499322
 C        -2.7924925491       -3.3693126580       -0.0899922610
 C        -2.2225663774       -4.8260581905        0.0271764243
 C        -1.8631971905       -5.3483555580        1.3648465507
 C        -0.3370533909       -5.1186042886        1.6279912801
 C         0.6274749321       -5.6303454910        0.5900241244
 O        -2.1476889213       -5.4763462648       -0.9931784822
 O         0.1381678326       -4.6206255347        2.5991167168
 C        -2.4525430243       -4.6790735066        2.6754842181
 C        -2.0629334987       -6.8920918855        1.4897258184
 C         1.9221335263       -4.8593668195        0.5206484634
 C         1.6779338965       -3.4548136800        0.0074520970
 C         2.9820307955       -2.5256895175        0.4231183419
 C         3.5333779114       -1.9940942149       -0.9339304075
 C         5.0659030856       -1.8162000664       -1.1420692564
 C         2.4715863314       -1.2873164486        1.1944685678
 C         4.0256334279       -3.2190767013        1.4172539733
 O         0.6757065473       -2.9647643988       -0.3517399517
 O         2.7871930117       -1.7072997850       -1.8305389387
 C         5.3902709526       -1.9602994302       -2.6459366110
 C         5.3183482669       -3.5018157667       -3.1028608544
 C         5.1253812650       -3.7093043740       -4.5638028951
 C         3.6559182936       -3.1904224498       -4.8593131936
 C         2.5646327510       -4.3206043720       -4.4725021330
 O         5.1618257430       -4.3435109966       -2.2298535579
 O         3.4637516525       -2.0324372245       -5.2077134660
 C         6.1303826151       -2.8677854330       -5.4431196917
 C         5.3303910156       -5.1716717431       -5.1112496757
 C         1.2052079675       -3.8720814348       -5.0835896758
 C         0.6582112931       -2.6988224731       -4.2432027271
 C        -0.0621437568       -1.4288981009       -4.8500848361
 C         0.3507926555        0.0443136428       -4.2157766208
 C         1.7700556223        0.5112212130       -4.1005968171
 C         0.3060428427       -1.2946214244       -6.3103147550
 C        -1.6444057642       -1.6406329334       -4.6853432050
 O         0.6267750999       -2.8179119175       -3.0371376328
 O        -0.4947394825        0.8885829674       -3.9332519514
 C         1.9029558047        1.8817211197       -3.4235521717
 C         2.0254189077        1.8525720068       -1.9583618900
 C         2.5807633535        3.1818300894       -1.1554570881
 C         1.3337089899        4.2017441092       -1.1890442414
 C         1.5329786426        5.3034476229       -0.1179574540
 O         1.6051538130        0.9306443796       -1.2830636385
 O         0.4149291205        4.0770823893       -1.9621157457
 C         2.8667438449        2.7209518333        0.2543535338
 C         3.9060333811        3.7547154810       -1.7157888107
 H        -3.7901558132        8.2733724954        4.6254872251
 H        -2.8864016925        9.3112180999        3.8329618041
 H        -3.1360630667        7.7142995661        3.2748117765
 H        -2.1479681087        5.4487505958        4.9015611920
 H        -2.7625084371        4.4750738526        6.2329079832
 H         0.1930693984        7.3780336509        6.9144637711
 H        -0.4753408413        5.8527322585        6.4367805480
 H        -0.8780167189        6.4937833463        8.1497106875
 H        -2.3665549510        9.6968147829        6.8078432885
 H        -2.9250130620        8.5811250089        8.0869119076
 H        -1.3227808655        8.9724059137        8.0146575939
 H        -5.1540414998        5.4922016337        5.4249515025
 H        -4.4111336618        5.5890800473        3.9218657741
 H        -3.8589599280        1.0632605552        3.1432683935
 H        -5.2713964305        0.4323755266        2.7627668761
 H        -7.3794712516        2.2554017133        5.3788487882
 H        -6.1352885430        1.2050462311        4.9600140353
 H        -7.4372694941        1.3473953823        3.8770760134
 H        -7.6981512481        3.8895517125        2.9578443242
 H        -7.3657455146        4.7437254574        4.3921317038
 H        -6.3089319196        4.9168649935        2.8701761995
 H        -3.0250620061        0.3842876275        1.1945312930
 H        -3.9709982229        1.6450891857        0.4209082580
 H        -3.4599044017       -3.2105822190       -2.2371543342
 H        -1.6998569720       -2.8848864320       -1.8880875930
 H        -5.2116532017       -1.6275178713       -2.9768059843
 H        -6.3723855419       -0.9444001453       -1.7727518124
 H        -5.4145725572       -2.3274088203       -1.4029086503
 H        -5.1019297840        0.8602467480       -2.9308595214
 H        -4.7601174301        1.6159372615       -1.4361568577
 H        -3.5062206972        1.2402897166       -2.5574385473
 H        -2.3312465561       -2.7168521879        0.6201166017
 H        -3.8254855386       -3.4522969487        0.1886706939
 H         1.0041019190       -6.7167057447        0.7869674324
 H         0.0920408555       -5.8130810943       -0.3313079931
 H        -1.7671868489       -4.3619346754        3.3957069107
 H        -3.0863803111       -5.4489112167        3.0241053359
 H        -3.0937358908       -3.8424602840        2.4154769033
 H        -3.1579249706       -7.0042389551        1.2585774209
 H        -1.6126733646       -7.3972280890        0.6654236395
 H        -1.7999765989       -7.1527265167        2.4716883643
 H         2.7004037252       -5.3301513165       -0.0644144442
 H         2.1854445500       -4.7523822572        1.6352622322
 H         5.3108276550       -0.8108260393       -0.8259825921
 H         5.5420248687       -2.5209192187       -0.4565029347
 H         1.8282362354       -1.5396455762        1.9918322529
 H         1.9154134572       -0.7401150140        0.5047477300
 H         3.3839220152       -0.6990141162        1.3581418732
 H         4.6690328787       -2.4013506360        1.7150285242
 H         3.4286724699       -3.5471869973        2.1905659454
 H         4.5894752486       -4.0098010835        0.9017880487
 H         4.5969593072       -1.3917730098       -3.3471538029
 H         6.3821119309       -1.6195776673       -2.8473747852
 H         2.7132549898       -5.3418582851       -4.7533269578
 H         2.5420743789       -4.3170212320       -3.3779976143
 H         6.1103016581       -1.7423449278       -5.3410953595
 H         5.7844791325       -3.0292230885       -6.4234147772
 H         7.1530984740       -3.2470420028       -5.4267080433
 H         4.9607239870       -5.2717102936       -6.1033691451
 H         6.3364102738       -5.3191801763       -5.2516415160
 H         4.9114167539       -5.8091489150       -4.3229873634
 H         0.5360876911       -4.7559285769       -5.1968138422
 H         1.2360043161       -3.6247887257       -6.0996091129
 H         2.2274275448       -0.2207197531       -3.4541632953
 H         2.2821279513        0.5119616672       -5.1485947746
 H         1.3247063047       -1.1502892433       -6.4200922167
 H        -0.3155537796       -0.4250215325       -6.6270468675
 H        -0.0527288513       -2.1258146383       -6.7743288629
 H        -2.3046801407       -0.8341546250       -5.0422932818
 H        -2.1098285743       -2.5301814245       -5.1304192152
 H        -1.8288406252       -1.7098131022       -3.7023555018
 H         2.6763950184        2.4557774391       -3.9333845862
 H         1.0014985049        2.5028325819       -3.6776976242
 H         2.4492002903        5.8628083110       -0.3721810607
 H         0.7299422645        6.0295771994       -0.1938213415
 H         1.5287747117        4.9836316659        0.8785784745
 H         3.2832121851        3.5523146314        0.7436895481
 H         3.6105578952        1.8493667763        0.2666994472
 H         1.9855125586        2.3828438379        0.7848838777
 H         4.5815648688        4.1123376537       -0.9566174727
 H         4.5371556773        3.0243507501       -2.2285191762
 H         3.6689384066        4.6412556016       -2.3984321238
 Na        0.3625539571       -0.9536684055       -1.4187262981
