155

 C        -2.7827590416        8.9151689077        4.3539847158
 C        -2.0718499717        7.6447194887        4.8965541675
 C        -2.2884029711        7.0574121719        6.4175207570
 C        -3.5775521367        6.1976062642        6.4346993518
 C        -3.6579113696        4.9528401481        5.5311243006
 C        -1.1394458553        6.0810473943        6.6740878702
 C        -2.3964725561        8.2335904303        7.3869212321
 O        -1.3307756693        7.0276132486        4.1468750802
 O        -4.6380445417        6.5777706673        6.8849342191
 C        -5.1001158582        4.5588923034        5.0988508144
 C        -5.2016967081        3.0528994652        4.9492507874
 C        -6.2840695259        2.6358474662        3.8398160552
 C        -5.5445106143        2.6110779341        2.4870539924
 C        -4.4510751499        1.6017439290        2.4110522511
 O        -4.4115737870        2.3104494369        5.4669374534
 O        -5.9017613479        3.3308767159        1.5718744107
 C        -6.8633346163        1.2485612634        4.2307429189
 C        -7.4684190793        3.6561137738        3.7056028463
 C        -3.9529518481        1.4678739025        0.9929007463
 C        -4.1914088883       -0.0221841692        0.3850052336
 C        -4.0811883707       -0.1663761848       -1.2125296858
 C        -2.8026437704       -1.0335588588       -1.3198758094
 C        -2.8414644791       -2.5722470996       -1.1648954464
 C        -5.3295624896       -0.9109002454       -1.6032074700
 C        -3.9267699401        1.2806789611       -2.0353321072
 O        -4.4907486177       -0.9286602812        1.1168261607
 O        -1.6815497915       -0.5716433861       -1.5404558960
 C        -2.4888461976       -3.1011194659        0.2934898142
 C        -2.0919081601       -4.6015024965        0.1139192156
 C        -1.7406300310       -5.4051430198        1.3368125849
 C        -0.2167038005       -5.2378906562        1.6635950593
 C         0.7391798126       -5.7027388221        0.5585421739
 O        -2.0389653962       -5.1020587183       -0.9897223745
 O         0.1355299111       -4.8150473650        2.7737638399
 C        -2.4544691860       -5.0006615734        2.6431108261
 C        -1.8098468048       -6.9333685034        1.0854531046
 C         2.0385192129       -4.8617652022        0.5625335186
 C         1.8660267255       -3.3635506032        0.5788309466
 C         2.9878760699       -2.4460124313        1.0555610001
 C         3.6385650746       -1.7722889044       -0.2645357644
 C         5.0930295727       -2.0358752855       -0.5408191181
 C         2.3234543539       -1.3321068052        1.9145381119
 C         4.1330465147       -3.2605163347        1.8502839776
 O         0.9065438020       -2.7643228734        0.0882558672
 O         2.9319587308       -1.1417092271       -1.0884690772
 C         5.4241576871       -1.8719101610       -1.9945585835
 C         4.7423083507       -3.1664357528       -2.7202458534
 C         5.1590743536       -3.4619103239       -4.2064474953
 C         3.9375853613       -3.2271933928       -5.1707089845
 C         2.7422071926       -4.0957109605       -5.0151309074
 O         3.9327742836       -3.8242114524       -2.1767769969
 O         3.9831256731       -2.2809214050       -5.9596720456
 C         6.3825793932       -2.5509860821       -4.6512701851
 C         5.6062284953       -5.0429641563       -4.2569976438
 C         1.3486652442       -3.6737759071       -5.6258566595
 C         0.7725141091       -2.5240440602       -4.8527174492
 C         0.1664251451       -1.1795035607       -5.4838217024
 C         0.3932661066       -0.1204203546       -4.3719242677
 C         1.8985802612        0.0052539435       -3.9730251167
 C         0.9139742697       -0.7819057744       -6.8518913457
 C        -1.3865619192       -1.3192633099       -5.6550482896
 O         0.7428340134       -2.6370677622       -3.5917369493
 O        -0.4328591244        0.5725356992       -3.7989576138
 C         2.3397174166        1.4442993889       -3.6063157119
 C         2.0132321000        1.7954385529       -2.2122255403
 C         2.6982990207        3.0578565257       -1.5544629766
 C         1.5054869121        4.0879716397       -1.3901843146
 C         1.7451870665        5.2610455082       -0.4713512929
 O         1.3153097496        1.1690717768       -1.4423644804
 O         0.5579870651        4.1465663002       -2.1485409908
 C         3.3454682860        2.7360069369       -0.1648802255
 C         3.8166980187        3.6212140562       -2.4513612155
 H        -3.6660908527        8.6228562917        3.6656559389
 H        -3.2657204261        9.6299398563        5.0451298996
 H        -2.0809416223        9.5760665511        3.8915007414
 H        -3.0043667396        5.0180246275        4.5916281268
 H        -3.3476802001        4.0746035259        6.1445777716
 H        -0.3875727524        6.5735704729        7.2102911015
 H        -0.8306127917        5.6736273015        5.7794792849
 H        -1.5341802787        5.2830642690        7.2774824739
 H        -3.4044119623        8.5463063761        7.5511456464
 H        -2.1738045960        7.8991564262        8.3933325034
 H        -1.7589001964        9.1155547167        7.1520570341
 H        -5.6288846559        4.9873374303        6.0164218614
 H        -5.3167503371        5.1988403123        4.2102691596
 H        -3.6106844094        1.5973153636        3.1963194601
 H        -4.9719633780        0.6457819185        2.6070798112
 H        -7.5127674527        1.2471209578        5.1591332805
 H        -6.0826153148        0.5287749114        4.5986272123
 H        -7.3678125992        0.7001263378        3.4413847906
 H        -8.2362031459        3.0636258798        3.2051658196
 H        -7.7184830580        4.0018630057        4.6900024621
 H        -7.2695999720        4.5074904887        3.0732941293
 H        -2.9070221074        1.7132823822        0.8770782325
 H        -4.3940433649        2.2373922333        0.3745593955
 H        -3.7948907319       -3.1243185670       -1.5486831409
 H        -2.1201720996       -3.0074440436       -1.8303653706
 H        -5.2930132717       -1.2472664655       -2.6984913885
 H        -6.0772936175       -0.1471377614       -1.5678747762
 H        -5.4821045572       -1.7596240279       -0.9417742866
 H        -2.8638632119        1.2630523315       -2.2801919063
 H        -4.6083014148        1.2063285790       -2.9424557212
 H        -4.1201069749        2.1545639744       -1.3648849224
 H        -1.6206643650       -2.5108607818        0.6499664393
 H        -3.3277212062       -2.9531060467        0.9102818226
 H         1.1066495977       -6.7353101802        0.7142285753
 H         0.1034516314       -5.7335468510       -0.3865180420
 H        -1.9317588400       -5.2689979104        3.5391055661
 H        -3.4422817725       -5.5161621606        2.7573890719
 H        -2.6839567419       -3.8829418475        2.6884068415
 H        -2.8979851470       -7.1698563802        0.9891531841
 H        -1.1528562474       -7.2885879812        0.3048415523
 H        -1.6597297551       -7.4817338395        2.0139586310
 H         2.6182870717       -4.9694222356       -0.3052694517
 H         2.6389505955       -5.1443576933        1.4877903146
 H         5.6889866802       -1.4349429230        0.1345144471
 H         5.2911704273       -3.0382020554       -0.1585025120
 H         1.6759052383       -1.6853859325        2.7343679438
 H         1.7410135250       -0.6963078765        1.2070084391
 H         3.0928907927       -0.6988729556        2.4365306275
 H         4.7942274011       -2.4439134600        2.1948476777
 H         3.7335203436       -3.7035169573        2.7585041631
 H         4.5569613001       -4.0158129938        1.1662634971
 H         5.2364108376       -0.8926036270       -2.4498719292
 H         6.5718187140       -2.1432101684       -1.9388740011
 H         2.7725744869       -5.1275413843       -5.3369785581
 H         2.6009216273       -4.2257523956       -3.9125175069
 H         6.1173478257       -1.4718358352       -4.5695592841
 H         6.5830211378       -2.7326320338       -5.6990501455
 H         7.2729976188       -2.7498709188       -4.0205643132
 H         5.6264230459       -5.4927126919       -5.2567376923
 H         6.4868226559       -5.0387094197       -3.5365562557
 H         4.8537386616       -5.6017182814       -3.7299030316
 H         0.6679120115       -4.5722603222       -5.4606120366
 H         1.4501150338       -3.4808368251       -6.6996539316
 H         2.1764892180       -0.6539446308       -3.0825964652
 H         2.5437483489       -0.5009858369       -4.7561242747
 H         1.9264949289       -1.2077362866       -6.6589910681
 H         0.8555723745        0.2911136872       -6.8902804086
 H         0.3742414771       -1.3453213424       -7.6692351189
 H        -1.9399434475       -0.3783958079       -5.5150267730
 H        -1.7253448693       -1.8193892047       -6.5544436502
 H        -1.7632627678       -1.9909924114       -4.7319903074
 H         3.3856109523        1.6438294214       -3.8311039724
 H         1.7888522487        2.0937858368       -4.2901180762
 H         2.4586901964        4.9927632479        0.2909637384
 H         2.1081741216        6.1798135580       -1.0249039521
 H         0.8299606936        5.4877702734        0.0912463641
 H         3.9035402017        3.6490173871        0.0741930367
 H         4.1799769744        2.0257270580       -0.3823968641
 H         2.6792784204        2.4443397494        0.6541320601
 H         4.0069329949        4.5750716818       -2.0220167028
 H         4.7451639496        3.0409903257       -2.4245060536
 H         3.5439159692        3.6841397231       -3.4728462530
 Na        0.4105845669       -1.0543994023       -1.7124113034
