155

 C        -3.5806062827        7.1008322272        3.8614657067
 C        -3.5287276526        6.1451006712        5.0656646915
 C        -4.4308880145        6.5189034411        6.3758202829
 C        -5.7557138480        5.6388118711        6.1644027266
 C        -5.6777603377        4.1465150792        6.4746993408
 C        -3.6295831194        6.0638432478        7.5711803151
 C        -4.7755334053        7.9975980929        6.5206482582
 O        -3.0569667424        5.0582403297        5.0135910767
 O        -6.7085535953        6.0714742424        5.5351590594
 C        -6.7601222199        3.2723020984        5.8199247548
 C        -6.3935919724        1.7752265661        5.5435825226
 C        -7.2873307233        1.0277490397        4.5057558872
 C        -6.7262018726        1.4963408857        3.0248992949
 C        -5.3090078850        1.0854708638        2.6290644422
 O        -5.4611446703        1.2988089345        6.1268393009
 O        -7.4346856212        2.1853452174        2.3122062029
 C        -7.0787800617       -0.4810331763        4.6631409958
 C        -8.7348762713        1.4499761826        4.6318460431
 C        -5.1275011526        1.1544389739        1.0388739224
 C        -3.6320968415        0.8359474193        0.8617466142
 C        -3.0257899432        1.1964175021       -0.6231116937
 C        -1.8273426241        0.1858463757       -0.9690605490
 C        -2.1379670536       -1.2604582960       -1.6209432330
 C        -4.1935165405        1.1704017596       -1.6313647079
 C        -2.4527923019        2.5739300031       -0.4972250809
 O        -2.8730157706        0.6024577619        1.7169880685
 O        -0.6540059685        0.3907917254       -0.6986687111
 C        -2.4735037984       -2.2203818577       -0.5308178201
 C        -2.5948351966       -3.6334604759       -0.9802316026
 C        -2.7325153325       -4.8053856219        0.2331151717
 C        -1.3675706165       -4.5868933095        0.9758210627
 C        -0.1392395634       -5.0486443042        0.1907027821
 O        -2.4739571945       -4.0273005944       -2.1433347351
 O        -1.3468442020       -3.9059323768        1.9754278360
 C        -4.0233580050       -4.3967680646        1.0267617697
 C        -2.7655358836       -6.0658684608       -0.5898548919
 C         1.2173222296       -4.5378789446        0.9014355000
 C         1.7650477404       -3.2628586541        0.2756363052
 C         2.8043836653       -2.6431373497        1.1969378945
 C         3.7350426982       -1.9021542017        0.3162081725
 C         5.3028355822       -2.1975082092        0.0341879996
 C         2.2311616657       -1.4410417355        2.0419744790
 C         3.6600663347       -3.5303902557        2.2105906815
 O         1.5778290127       -2.7691269407       -0.8181904655
 O         3.2968854904       -0.9853910399       -0.3262318334
 C         5.3995200063       -2.2976098385       -1.4821095913
 C         6.0087788838       -3.6657535996       -1.9249425755
 C         6.7429635524       -3.8134845925       -3.2410004039
 C         5.6794043025       -3.5336303143       -4.2659093096
 C         4.4369782000       -4.4952545258       -4.3825655088
 O         5.7548319544       -4.6300648348       -1.2287357540
 O         5.7937816803       -2.4901569017       -4.9365321275
 C         7.9255832917       -2.8612534789       -3.3812739331
 C         7.2197586360       -5.2966563375       -3.2711614138
 C         3.2382601166       -3.9756711642       -5.1979389112
 C         2.8011889823       -2.4617360607       -4.6600508100
 C         2.2565781622       -1.5467671620       -5.6707474133
 C         1.5809041297       -0.4038855226       -4.9537124109
 C         2.2933288577        1.0168320976       -4.9891720136
 C         3.4817558282       -1.0083270355       -6.4944487957
 C         1.2200180666       -2.3314081519       -6.5597266748
 O         2.7404436078       -2.2036457080       -3.4738086704
 O         0.6121429683       -0.5323434387       -4.1660511029
 C         1.4726149503        2.1570722899       -4.0887579085
 C         2.0504120390        2.3789302757       -2.7369704534
 C         2.3960474227        3.9231614188       -2.3835032092
 C         1.0481969346        4.8445076201       -2.4403212824
 C         1.1343216227        6.3391632877       -2.2578220965
 O         2.4129018899        1.5849823066       -1.8907866396
 O        -0.0104358055        4.3233797903       -2.5968993740
 C         2.8444099649        3.9853342595       -0.8944265128
 C         3.3850386481        4.5643154136       -3.4270963125
 H        -3.5174145607        6.5050735487        3.0390719294
 H        -4.4800504285        7.6520329899        3.8255327372
 H        -2.8594087433        7.8523674761        3.8569307447
 H        -4.7380930621        3.7498621195        6.1349942166
 H        -5.6856395100        4.0228248941        7.5368285335
 H        -2.8609905053        6.7226175234        7.9252389239
 H        -3.1198038161        5.1370140097        7.3388534578
 H        -4.1674630397        5.8353956328        8.4131001159
 H        -5.8551955186        8.1078253106        6.3222078187
 H        -4.5998384676        8.4225279009        7.4896894261
 H        -4.4026396081        8.6513464245        5.6959804238
 H        -7.6538298120        3.1638648713        6.4535862695
 H        -7.2027282900        3.8386160097        4.9768088708
 H        -4.5796130510        1.8094984549        3.0307152108
 H        -5.1061565781        0.0518903192        3.0637322871
 H        -7.5748993884       -0.7807773649        5.5794253873
 H        -5.9969088048       -0.4693456393        4.6703097573
 H        -7.4782635793       -1.0939230314        3.7550939063
 H        -9.3368936698        1.4082753504        3.7324896038
 H        -9.2491794580        0.9409821065        5.4520520432
 H        -8.8024830157        2.4788795178        4.9521715255
 H        -5.2200428674        2.0994503109        0.4873261031
 H        -5.7921344453        0.4754328699        0.4772819015
 H        -3.0778549954       -1.1372577189       -2.2299974564
 H        -1.3624886229       -1.5441612870       -2.3870375718
 H        -3.9118698346        1.0805714891       -2.7519480961
 H        -4.6825129660        2.1001316659       -1.6336604986
 H        -4.8938461190        0.3682499991       -1.3993305358
 H        -1.4628676736        2.7139062148       -0.0233270972
 H        -2.2649929261        2.9590025759       -1.4612369514
 H        -3.1361905384        3.2178302013        0.0251491888
 H        -1.6465243193       -2.2798704148        0.1055812423
 H        -3.4072713912       -1.9331374493        0.0478902485
 H        -0.0506654729       -6.1748508583        0.0784270336
 H        -0.0711865161       -4.6976787606       -0.7827411927
 H        -4.3168769912       -5.3179005681        1.6421434344
 H        -4.7314373911       -3.9739867222        0.2708809269
 H        -3.7840633723       -3.7183141983        1.8430666205
 H        -3.6022478583       -6.1941124318       -1.2027363423
 H        -1.9543714855       -5.9789340764       -1.3228886141
 H        -2.6462865037       -6.9353014593        0.0703316262
 H         2.0113022648       -5.3342594366        0.8759122231
 H         1.0695068896       -4.3888327634        1.9481489832
 H         5.8137048795       -1.2776136800        0.3193917631
 H         5.8268572215       -3.0390938674        0.5473540168
 H         1.7908247140       -0.7063557637        1.3240574753
 H         3.1328014551       -0.9900899147        2.5470079028
 H         1.5892929945       -1.7683170651        2.8687427324
 H         4.4484481526       -2.8586987017        2.6481667335
 H         3.0002718840       -3.8518620625        3.0466656461
 H         4.1916825662       -4.3400233051        1.7376176695
 H         4.4692535152       -2.1783415585       -1.9155335626
 H         6.0514042711       -1.4765066482       -1.8199961668
 H         5.0134091010       -5.3032424404       -4.8538168879
 H         4.1571470984       -4.8453351404       -3.3739457722
 H         7.8448635735       -2.1766165358       -4.2340110994
 H         8.7790870155       -3.4937077739       -3.4436622989
 H         8.1701292780       -2.3903658309       -2.4354472686
 H         7.7760170299       -5.5393420581       -4.2048724177
 H         7.9752899962       -5.4059002073       -2.4492712010
 H         6.3495132461       -5.9115750345       -3.2006446738
 H         2.3328478239       -4.5804890252       -5.1343669787
 H         3.5739199395       -4.0334445158       -6.2050884459
 H         3.2485415749        0.7768256041       -4.6221575386
 H         2.3692019356        1.4094501342       -6.0347047672
 H         4.2791995302       -0.6641809972       -5.9047793855
 H         3.3175798041       -0.2198738947       -7.2004198683
 H         3.9508575712       -1.6719224065       -7.2269793373
 H         0.7735430200       -1.6337361830       -7.2956174637
 H         1.6459653245       -3.1549661466       -7.1233940790
 H         0.3656969875       -2.7427359908       -5.8155528207
 H         1.5665762129        3.1386145043       -4.5934430719
 H         0.4310527525        1.7824811590       -4.1018079441
 H         1.1680123134        6.8642813530       -3.1967243999
 H         0.2387521709        6.6207591961       -1.7188395479
 H         2.0138272398        6.6490815867       -1.6495916214
 H         3.1613576222        5.0596569546       -0.6263513021
 H         3.7419572521        3.3727194330       -0.7587714857
 H         2.0280742517        3.6399147344       -0.1915163646
 H         3.0484554263        5.5975228142       -3.4866044531
 H         4.4628122719        4.5368019399       -3.2222241439
 H         3.3171471099        4.0969071896       -4.4206000856
 Na        1.4015345002       -0.4453991806       -1.8170031055
