155

 C        -3.6653814411        6.9907680613        3.9304816148
 C        -4.0033466762        6.0984794659        5.1270383838
 C        -5.0081804539        6.5722910366        6.2650777173
 C        -6.1969949495        5.4686783332        6.1858351059
 C        -5.9131373300        3.9438168695        6.3964279548
 C        -4.2822734827        6.4345372612        7.6964787212
 C        -5.5390347957        8.0112712432        6.0211153890
 O        -3.3660946114        5.0467822073        5.2130748101
 O        -7.3673541174        5.7637872237        6.0837778164
 C        -7.0717370538        3.1059053870        5.8160196834
 C        -6.5515095718        1.6955017080        5.5901255571
 C        -7.2982024022        0.7860041954        4.5373738147
 C        -6.7059708615        1.2660556963        3.1486932709
 C        -5.4898865579        0.4813429443        2.6239745554
 O        -5.5930461302        1.2223180018        6.1667789761
 O        -7.0988505536        2.3339398237        2.7004974825
 C        -7.0974970917       -0.7445193815        4.9670922209
 C        -8.7780210214        1.1452606479        4.4961510285
 C        -4.7153269216        1.3248504609        1.5515805031
 C        -3.6476296400        0.4595411640        0.8885746312
 C        -2.8412972685        1.0860522926       -0.2603840635
 C        -1.9140259209        0.0224622178       -1.0004679614
 C        -2.5443490835       -1.1538844215       -1.7302186155
 C        -3.8737081643        1.7574196378       -1.3709828525
 C        -1.9682939987        2.3182969768        0.3055793948
 O        -3.4142224050       -0.7182965904        1.2683396574
 O        -0.7300136802        0.2561979764       -0.9934049897
 C        -2.7160793341       -2.2811431126       -0.7391222449
 C        -2.6162082123       -3.7712430326       -1.3776634071
 C        -2.4520771313       -5.0522989458       -0.3847239850
 C        -1.2092500672       -4.7719472229        0.5913450674
 C         0.1724222699       -5.1328532072        0.0770875774
 O        -2.8989152152       -3.9798495410       -2.5216498388
 O        -1.3243837115       -4.0152163722        1.5580879261
 C        -3.8381141275       -5.0683809372        0.5011341620
 C        -2.2071480310       -6.2779224905       -1.3061911873
 C         1.1951768603       -4.3555451676        0.8887335436
 C         1.4166711770       -2.8608641692        0.5194263636
 C         2.5789833172       -2.0945110323        1.2204790620
 C         3.6292397039       -2.0563761974        0.0288106139
 C         5.0091836436       -2.4619358526        0.3654523098
 C         1.9847885806       -0.6632711605        1.6147227795
 C         3.1817992474       -2.6947828127        2.6205980375
 O         0.8918550577       -2.4497712197       -0.5192802965
 O         3.3561877732       -1.5109221652       -1.0458930914
 C         5.8911103707       -2.2512896498       -0.8434021737
 C         6.2638921081       -3.6182998628       -1.5137915243
 C         6.9838444829       -3.6513734314       -2.8660917015
 C         5.8952018703       -3.3232724472       -3.9592936635
 C         4.5298727458       -4.1148622022       -3.7541414902
 O         5.8840229852       -4.6291193651       -0.9705373922
 O         6.1696523238       -2.6355622155       -4.8615548436
 C         8.1705393552       -2.6475039492       -3.0280325489
 C         7.5151169264       -5.0567072866       -3.2136432633
 C         3.4105016910       -3.7641325976       -4.7022211554
 C         2.8108966902       -2.3803715916       -4.3432287985
 C         2.4447969257       -1.3402753597       -5.5206766807
 C         1.9985336488       -0.0909012551       -4.9016727844
 C         2.5275456420        1.2632869962       -5.2090951974
 C         3.6658666645       -1.0899487343       -6.4677285307
 C         1.1117244728       -1.9342859263       -6.1994372774
 O         2.5336615760       -2.1110959703       -3.2382363625
 O         1.0516035675       -0.1699709925       -4.1235188418
 C         1.7189370137        2.3567179360       -4.5305115200
 C         2.2700332102        2.5483232549       -3.1439330075
 C         2.6497622444        3.9303895294       -2.6394278638
 C         1.5363294312        4.9732678472       -2.8761719968
 C         1.6237528446        6.4999771427       -2.5179168204
 O         2.1648325179        1.6704359315       -2.3231823483
 O         0.4962208069        4.5416611285       -3.2812672324
 C         2.9655907858        3.8489429896       -1.2063872754
 C         3.9470653361        4.3462943999       -3.4530663643
 H        -2.9755250466        7.9279304879        4.0788671376
 H        -2.9735383910        6.3369114239        3.2899446883
 H        -4.5707509690        7.2891610585        3.3208459891
 H        -4.9383610951        3.5988523374        5.9764657688
 H        -5.7663724897        3.7389970311        7.5647863491
 H        -3.5953959737        7.2550104154        7.8814894890
 H        -3.7026985584        5.5132182791        7.9602045661
 H        -5.0363388994        6.4591459882        8.5678581297
 H        -6.2898052300        8.0111688384        5.2234219745
 H        -6.1068024306        8.4014268439        6.8606407307
 H        -4.8234303438        8.8096311893        5.8614168989
 H        -7.9765871542        3.0862332067        6.4694719905
 H        -7.2180136594        3.5634556739        4.7986721215
 H        -4.9841992840        0.1371543735        3.5062918750
 H        -5.7206906925       -0.4658179116        2.1606609570
 H        -7.6657375032       -0.9293629313        5.8466027559
 H        -6.0682548567       -0.9339135856        5.2388239947
 H        -7.4524177748       -1.2523051286        4.0872158296
 H        -9.1690095943        1.1425473393        3.4602611043
 H        -9.4611472001        0.5508270152        5.0491300147
 H        -8.8869356352        2.2004571018        4.7792655211
 H        -4.2469143076        2.1525359477        2.0598900248
 H        -5.3741843538        1.5998539245        0.8649913486
 H        -3.3821828856       -0.7349983737       -2.2107855663
 H        -1.9005706938       -1.5812928679       -2.4584826966
 H        -3.2923940013        1.7498622962       -2.2963776570
 H        -4.1724251156        2.7758093487       -1.1102923865
 H        -4.7334038458        1.1249534483       -1.4724396807
 H        -1.0673588964        2.0188957980        0.8398995876
 H        -1.7236677699        2.9048537456       -0.5844852889
 H        -2.5620240009        3.0325577876        0.9087519726
 H        -2.0505051012       -2.2492974869        0.1815724966
 H        -3.7145690434       -2.3367771884       -0.3637061139
 H         0.3732240818       -6.2602032772       -0.0288692021
 H         0.3070434829       -4.7591550604       -0.9177607958
 H        -4.1043562767       -6.0053406634        0.8536555328
 H        -4.6841637015       -4.7709627953       -0.0324358461
 H        -3.6241363291       -4.2890858120        1.2211904495
 H        -3.2327207485       -6.4525909394       -1.8085395608
 H        -1.4408603304       -6.1282266524       -2.0102021053
 H        -1.9034170263       -7.1736580442       -0.7788394080
 H         2.2670781285       -4.8275839029        0.8247210476
 H         0.9464545556       -4.5002623400        1.9619421874
 H         5.3426569934       -1.8939850276        1.2068783251
 H         5.1052954501       -3.5075687931        0.6703663748
 H         1.4926993543       -0.2226127881        0.7809716861
 H         2.8116774270       -0.0138387633        1.9258330075
 H         1.2396768233       -0.8837640037        2.3139612641
 H         3.7894497824       -1.8910693390        2.9882174744
 H         2.4029905477       -3.0260958420        3.3278897532
 H         3.7355178514       -3.5178200966        2.3340478739
 H         5.3854990032       -1.4833330341       -1.6016772385
 H         6.8560585263       -1.8557957318       -0.5875793058
 H         4.9019771897       -5.1373158522       -3.9367460405
 H         4.1861761818       -4.1517651326       -2.7124138557
 H         7.9467363477       -1.6471280652       -2.7470333719
 H         8.4181572178       -2.7080794665       -4.1264689247
 H         8.9630657894       -2.9575862753       -2.3540362612
 H         8.1360061222       -5.0439816659       -4.0396800594
 H         7.9406780969       -5.3582129850       -2.2737945130
 H         6.6514901985       -5.7584557264       -3.2564940407
 H         2.5306250782       -4.4760275352       -4.6972620355
 H         3.7757016023       -3.7860928783       -5.6915114980
 H         3.5300730986        1.2337133645       -4.9101771386
 H         2.5573722876        1.3093396479       -6.2836950621
 H         4.5846368039       -0.7111023212       -6.0668389521
 H         3.5235769370       -0.2948198453       -7.2641951987
 H         4.0249086986       -2.0125787067       -6.9172438352
 H         0.3935601376       -1.1665833026       -6.5957502203
 H         1.3252899861       -2.7972194355       -6.8855616499
 H         0.6509815631       -2.2998744328       -5.3777306308
 H         1.6086024709        3.2892665062       -5.1399026791
 H         0.6737078998        1.9943480748       -4.3768877303
 H         2.5624969700        6.9184705002       -2.9851259097
 H         0.7463800119        7.0135361001       -2.8940338219
 H         1.7983392070        6.5956455507       -1.4794031941
 H         3.3436628802        4.7223767110       -0.8094721581
 H         3.6164070500        2.9934259085       -1.0996782342
 H         2.0292002023        3.6224681776       -0.7163423171
 H         4.0478211246        5.4266033642       -3.3541031268
 H         4.8798897870        3.9567692612       -2.9451851322
 H         3.8931183514        4.1143533377       -4.4847845689
 Na        1.3007810548       -0.5430132513       -1.5708069335
