155

 C        -4.3669200850        7.1547211228        4.0625352416
 C        -4.2256253628        6.2341851974        5.2612644630
 C        -5.3439255854        6.4721237707        6.3306092234
 C        -6.5434656641        5.4690306828        6.1403816694
 C        -6.0338018431        4.0688788852        6.2725919874
 C        -4.7990673469        6.1022490278        7.7321452526
 C        -5.8923419323        7.8714773297        6.2534272360
 O        -3.5297565188        5.2815234759        5.2336068463
 O        -7.6197092565        5.8707172957        5.7639871584
 C        -7.0581800285        3.0482838843        5.7603551093
 C        -6.6385635809        1.5445258619        5.7235564249
 C        -7.4290033138        0.7382840141        4.5805726651
 C        -6.7520727216        1.1249342190        3.2177437630
 C        -5.5432762380        0.3437719562        2.7350774724
 O        -5.8420708082        1.0893325215        6.5150450398
 O        -7.1702821868        2.0726978213        2.5785565868
 C        -7.0220094445       -0.7204757109        4.8588407030
 C        -8.9166737751        1.0347955837        4.6244542151
 C        -4.7238571045        1.2610145584        1.5944805959
 C        -3.4457147720        0.4811040326        1.0485214739
 C        -2.6420306055        1.2090549532       -0.1320080600
 C        -1.7896415472        0.1970644680       -0.9532872858
 C        -2.3848249471       -1.1220063444       -1.6254864105
 C        -3.6978500208        1.8377049976       -1.2080198814
 C        -1.6595496898        2.1896954403        0.5145422720
 O        -3.1496898128       -0.5683068547        1.4775183988
 O        -0.5947009281        0.3964948769       -1.0861182897
 C        -2.2512257400       -2.5061200097       -0.7773419353
 C        -2.1930818426       -3.8027784360       -1.6216396377
 C        -2.1594335288       -5.1307351889       -0.9207335700
 C        -1.0266575551       -5.0871479191        0.3864828487
 C         0.3384371810       -4.9939184031       -0.1501423011
 O        -2.1871494803       -3.6753292429       -2.8167042068
 O        -1.3021527510       -4.9852123075        1.5501281451
 C        -3.5318782519       -5.3983248097       -0.3401760819
 C        -1.7455190728       -6.2861166761       -1.8255390515
 C         1.4311895137       -4.1880939867        0.7434150786
 C         1.5172971761       -2.7472481252        0.2634137598
 C         2.4396979524       -1.8152206144        1.0186644320
 C         3.8310962400       -1.7917358115        0.2433519795
 C         5.0072838005       -2.6131216183        0.8654532794
 C         1.7712357560       -0.3526006481        1.0768615793
 C         2.5061048997       -2.2799072615        2.5522334869
 O         1.0579067297       -2.4807255985       -0.8265163273
 O         3.9094207163       -1.2686057659       -0.8343876711
 C         6.3139880397       -2.4517232551        0.0465475912
 C         6.3020174442       -3.6450297281       -1.0772737005
 C         6.8512765648       -3.4204465862       -2.4745490429
 C         5.6671749658       -3.0975417059       -3.4997389329
 C         4.4085779249       -3.9649203305       -3.4389384804
 O         5.9411743219       -4.7383660229       -0.7166622152
 O         5.7845835967       -2.0756762186       -4.1018439134
 C         7.9341198589       -2.2849181133       -2.4914668932
 C         7.5049694370       -4.7254459207       -2.9012047918
 C         3.4131067469       -3.7968322954       -4.7236193118
 C         2.4471211806       -2.5981310698       -4.5430318009
 C         2.2567639130       -1.6140339144       -5.6926261633
 C         1.6986627059       -0.2279186970       -5.2091033834
 C         2.4852380422        1.0398408209       -4.9469738715
 C         3.6036983262       -1.2704525245       -6.4890979922
 C         1.2588126287       -2.2753721765       -6.6827104934
 O         1.7348030322       -2.6245675378       -3.5110991115
 O         0.5349132934       -0.1376709787       -4.9026767326
 C         1.5634181744        2.2351317382       -4.3234409012
 C         2.1659227350        2.5760212520       -2.9583149436
 C         2.7927318859        3.9654801430       -2.5450981488
 C         1.7981416319        5.1818404840       -2.9719282864
 C         2.2591642525        6.5832723854       -2.6141276272
 O         2.3482508277        1.7084389647       -2.1046435781
 O         0.8108408755        4.8802210153       -3.5934621433
 C         3.0212952898        4.0019906298       -1.0103545204
 C         4.2320074247        4.3144069221       -3.3382339353
 H        -5.2326081110        6.7598239367        3.5533281087
 H        -4.3727768058        8.2278064708        4.2079577421
 H        -3.5401624591        7.0057650436        3.4078443433
 H        -5.0697170524        4.0104703798        5.7247871639
 H        -5.8190424130        3.8735603315        7.2805554773
 H        -4.1862283054        6.8476316862        8.2819122467
 H        -4.0996226439        5.2367118105        7.6353332121
 H        -5.5854067002        5.8472942821        8.3812895894
 H        -6.6095292098        7.9476576762        5.4364030568
 H        -6.4161066369        8.1601467011        7.1362897732
 H        -5.1058059036        8.5875793217        5.9565070264
 H        -7.9225314944        3.1014744656        6.5435031474
 H        -7.6006688773        3.3659647501        4.8109925252
 H        -4.9010730235        0.1096396715        3.5901148604
 H        -5.8787401129       -0.5533998391        2.2331666158
 H        -7.5160256887       -1.0289179941        5.7664577270
 H        -5.9540925275       -0.8245884075        4.9665900992
 H        -7.4990032554       -1.4174834949        4.0457332623
 H        -9.2833555886        0.0474541141        4.4398108313
 H        -9.2039743570        1.4232084198        5.6301304783
 H        -9.3474252698        1.7193018555        3.9343198145
 H        -4.1965684459        2.0739470815        2.1419003166
 H        -5.3840650685        1.7743156271        0.8034498316
 H        -3.4329656492       -0.8448301790       -1.6335643865
 H        -1.9885766253       -1.3707441280       -2.6196342367
 H        -3.0660408095        2.2924998944       -2.0236134033
 H        -4.1644730875        2.6052252941       -0.7272846676
 H        -4.3690156542        1.0529451302       -1.5077679879
 H        -0.9219812255        1.7244679447        1.1729574630
 H        -1.1928847395        2.6897709923       -0.2607684264
 H        -2.2562711866        2.8223361883        1.0942261442
 H        -1.3925417655       -2.5919076122       -0.2563910971
 H        -3.0812075350       -2.5729350393        0.0057171531
 H         0.6830900189       -6.0197225285       -0.2468941637
 H         0.3804201517       -4.5545358869       -1.1886765841
 H        -3.4673272566       -6.3427090021        0.2363516775
 H        -4.2535802980       -5.4679866632       -1.1201069047
 H        -4.0023485702       -4.7592514281        0.3949098477
 H        -2.4783933061       -6.5771719988       -2.5393299509
 H        -0.8036239796       -6.0754764753       -2.3535197843
 H        -1.6417170721       -7.1648217888       -1.2122137187
 H         2.4627840260       -4.5573579728        0.5819309828
 H         1.2098663662       -4.3566008613        1.8581417036
 H         5.3321240434       -2.3814747632        1.8981004523
 H         4.7376881536       -3.6620508398        0.7989415823
 H         1.8911318880        0.2235726833        0.1911627648
 H         2.3263538335        0.0342929796        1.9026617635
 H         0.7816594261       -0.4295558910        1.4243254128
 H         3.2598399835       -1.6703164628        3.0861171827
 H         1.5141237986       -2.1582542000        2.9229448457
 H         2.9296565251       -3.2812522552        2.6020350417
 H         6.3969148358       -1.4940796002       -0.3362026785
 H         7.1428630177       -2.6264042824        0.6962115098
 H         4.6051319861       -5.0220777816       -3.3724172293
 H         3.9760875703       -3.6427086558       -2.4704731734
 H         7.6282237778       -1.3376599913       -1.9602669665
 H         8.2018001303       -2.0408972793       -3.4725229691
 H         8.7804346666       -2.7621141703       -1.9935800192
 H         7.5388940894       -4.7921729029       -4.0001837564
 H         8.5313350916       -4.6876350928       -2.5404819473
 H         6.8894822121       -5.4846849356       -2.5706811680
 H         2.8976668826       -4.7086390082       -4.6836177837
 H         4.0968264084       -3.7063204625       -5.5915424965
 H         3.1397213528        0.6846269510       -4.1880564985
 H         3.0452303224        1.4023140673       -5.8315351167
 H         4.5008187072       -1.1642651483       -5.8498861992
 H         3.5527216460       -0.5189663228       -7.2926572316
 H         3.8135678488       -2.1591111119       -7.1607113395
 H         1.2486069103       -1.6612193230       -7.6680399456
 H         1.6345145492       -3.3359742299       -6.8229475429
 H         0.2475511586       -2.1741321787       -6.2840409792
 H         1.5381477721        3.1046054779       -5.0153637885
 H         0.4872642446        1.9145635004       -4.2715202387
 H         3.2736268710        6.4519171006       -2.3895405087
 H         2.1272245707        7.2857042534       -3.3894249332
 H         1.7341125903        6.8623079665       -1.6669693159
 H         3.3481018583        4.9888258341       -0.7360841037
 H         3.7626888275        3.3552812254       -0.7485268571
 H         2.0905396551        3.7771647534       -0.5537883900
 H         4.8282634510        4.8084304036       -2.6004092815
 H         4.6734932691        3.4501643359       -3.7407855197
 H         4.1465428682        5.0068263253       -4.2266840919
 Na        1.2313901679       -0.5829568293       -2.1535726967
