155

 C        -4.8008919917        7.4112905896        4.0685181085
 C        -4.5258350236        6.4905683627        5.2867945221
 C        -5.5073729930        6.5097574611        6.5032213500
 C        -6.5882779088        5.4418315639        6.0939895719
 C        -6.2788821387        3.9643649209        6.3797764995
 C        -4.6430330308        6.1078945298        7.6729948766
 C        -6.2404031898        7.8200148717        6.6197799218
 O        -3.5921246811        5.7299771241        5.3441483878
 O        -7.5774941292        5.8819158209        5.4767158443
 C        -7.2577210261        3.0228639974        5.6528192317
 C        -6.7973159861        1.4665600373        5.5668148389
 C        -7.3359356786        0.4988098191        4.5010750027
 C        -6.5845907110        0.9928732673        3.1980123682
 C        -5.1828731199        0.3862084994        2.9709017777
 O        -5.9463392138        1.0789621796        6.3661939400
 O        -7.0475134828        1.8636530876        2.4802369148
 C        -7.1394022569       -0.9609828921        5.0161354823
 C        -8.8875164310        0.6315648880        4.1511817476
 C        -4.8605738712        0.8589042184        1.4696530031
 C        -3.4792702521        0.3639527965        1.0169199147
 C        -2.7063112249        1.1445679918       -0.1383195716
 C        -1.8021261466        0.1523139405       -1.0039423937
 C        -2.3755103317       -1.1806576765       -1.4445747090
 C        -3.6472190575        1.9490749319       -1.2383710277
 C        -1.9078827460        2.1620562563        0.7347784992
 O        -2.7762569327       -0.5695278991        1.4318915254
 O        -0.7333145270        0.5999741309       -1.3935329651
 C        -1.8720770417       -2.3628112079       -0.6301477795
 C        -1.7329355677       -3.5696131036       -1.7231057632
 C        -1.8064852897       -5.0470822396       -1.1461717122
 C        -0.7908894228       -5.3301660437        0.0526708911
 C         0.6820718680       -5.2200164595       -0.1784124938
 O        -1.8212278630       -3.3597064049       -2.8919738906
 O        -1.2104593034       -5.4614897176        1.1980995582
 C        -3.2679524518       -5.2813428433       -0.6998774289
 C        -1.7001052046       -5.9956725963       -2.3285141180
 C         1.4682415037       -4.2408967598        0.8965135959
 C         1.5495806629       -2.8334599980        0.3285864175
 C         2.2699656591       -1.7916203820        1.0917606281
 C         3.7665413320       -1.7544940101        0.2512203589
 C         4.9367346656       -2.2156882555        1.0276367756
 C         1.5998539802       -0.4140450164        1.0083883501
 C         2.3718605969       -2.1155198158        2.6742128204
 O         1.0314280273       -2.5410014439       -0.7586278132
 O         3.8620518305       -1.3776410274       -0.8997101471
 C         6.1387424212       -2.2467997761        0.1517002899
 C         6.0437342345       -3.3942285848       -0.8634902200
 C         6.6463910979       -3.2254621257       -2.3337610835
 C         5.3226517673       -2.8869359758       -3.1716263283
 C         4.2493080093       -3.9479049096       -3.3860555844
 O         5.3553277572       -4.3572281464       -0.6456594287
 O         5.1968577759       -1.7953861577       -3.5914283549
 C         7.7008182488       -2.0547853348       -2.3895233963
 C         7.2898278693       -4.5765207487       -2.9500396701
 C         3.4364959410       -3.7425666792       -4.7770911010
 C         2.7055492926       -2.4371216867       -4.5843059520
 C         2.3236571960       -1.5658519862       -5.7943183255
 C         1.7204476424       -0.3494760103       -5.1604404888
 C         2.6312786757        0.9223315262       -4.9175088681
 C         3.5586025121       -1.3166263893       -6.6816835576
 C         1.3042743990       -2.4573856080       -6.6099452384
 O         2.4791211422       -2.0742090132       -3.4799191663
 O         0.6335074530       -0.3810861649       -4.6378022784
 C         1.6629627148        2.0406435002       -4.2711210812
 C         2.2216949380        2.3726423431       -2.8416395455
 C         2.9698113237        3.8176072908       -2.4550888691
 C         2.0407989185        4.9692126695       -3.0768882892
 C         2.3589553435        6.3814994997       -2.7274948510
 O         2.1819542735        1.5044523469       -2.0117070126
 O         1.0799394656        4.6005250130       -3.7228413410
 C         3.1526359202        4.0162551221       -0.8177290512
 C         4.3792974673        3.9215595507       -3.1626139891
 H        -5.9284012612        7.2740137107        3.7247683312
 H        -4.5301563606        8.4978465973        4.2437952327
 H        -4.1931587302        7.0402332017        3.2025740306
 H        -5.2672541157        3.7767138613        5.8816176946
 H        -6.1952229494        3.8205943314        7.4702334198
 H        -3.7490494022        6.7664215877        7.7223078533
 H        -4.4105249662        4.9945043976        7.6478233151
 H        -5.1740849151        6.3063072163        8.6408639238
 H        -6.7008393260        8.0653992827        5.6446048957
 H        -6.9761341226        7.7552046759        7.3899953860
 H        -5.5078601473        8.6069941180        6.9478938915
 H        -8.3417054163        3.1228729950        6.0888245937
 H        -7.5088159866        3.4577011588        4.6404384879
 H        -4.4508573288        0.7653000737        3.6445540470
 H        -5.4789903314       -0.6270166107        2.9783857299
 H        -7.6837976916       -1.1379100797        5.8816043605
 H        -6.1033643546       -0.9951892701        5.2843375739
 H        -7.2559974222       -1.7794300748        4.2722049933
 H        -9.0760558660        0.2256041959        3.1692486323
 H        -9.5028999065        0.0834014671        4.8911448424
 H        -9.1858537984        1.6653735632        4.0795083470
 H        -4.8673887929        1.9833190320        1.2937346434
 H        -5.6595815472        0.5775095718        0.7716707913
 H        -3.4305032409       -1.1551613976       -1.4200275546
 H        -2.1329817521       -1.3084187090       -2.4996351836
 H        -2.9980414630        2.5587168199       -1.9421246584
 H        -4.3600497939        2.5105008811       -0.7344555811
 H        -4.0535635909        1.1373592767       -1.7813012792
 H        -1.2486249636        1.4921958622        1.3606061142
 H        -1.2242577765        2.7792375882        0.1180617145
 H        -2.6548453932        2.7728651554        1.3147183999
 H        -0.9456780358       -2.1633981832       -0.2338878546
 H        -2.6275391441       -2.4873991404        0.2123970627
 H         1.1441606308       -6.2243870644       -0.0879795623
 H         0.9520942278       -4.8142747554       -1.1789679637
 H        -3.4676550342       -6.2716389499       -0.3159470785
 H        -3.9275640009       -4.9470455743       -1.4335598265
 H        -3.5800389227       -4.7453195152        0.1824623441
 H        -2.4088860499       -5.8605305230       -3.1914123269
 H        -0.7651667713       -5.8193952478       -2.8450861873
 H        -1.7428334958       -7.0295644073       -1.9610959641
 H         2.4779333601       -4.6455514302        1.1981601773
 H         0.7946675852       -4.1921975695        1.8378544091
 H         5.1687943685       -1.4063672771        1.7546700548
 H         4.8661624696       -3.1318286993        1.5565195288
 H         1.5207498674        0.0036123223        0.0205769023
 H         2.1898323449        0.1928408731        1.7341916126
 H         0.6724176728       -0.5472404724        1.5210068253
 H         2.9473466670       -1.3293468157        3.1938598934
 H         1.3424157681       -2.1111197316        3.0423408268
 H         2.8712882484       -3.0211975557        2.9148759377
 H         6.2057289509       -1.3418794468       -0.4390797516
 H         7.0263142810       -2.3095315514        0.6596706840
 H         4.8330992705       -4.8379345649       -3.3547181991
 H         3.4880674329       -3.9599400863       -2.5870457675
 H         7.1787985853       -1.0859440882       -2.2486234923
 H         8.2146537712       -2.1925992842       -3.3095300628
 H         8.5148415383       -2.1549797035       -1.6753364046
 H         7.5625628920       -4.4512592830       -3.9811935588
 H         8.1720372014       -4.8802575495       -2.3666689900
 H         6.5561304399       -5.3690821506       -2.8245935655
 H         2.7267708535       -4.5064638480       -5.0390913465
 H         4.2347627114       -3.5985759019       -5.5240871933
 H         3.3901003189        0.7147906285       -4.2650203234
 H         3.0845464364        1.2487493123       -5.8692885406
 H         4.4835397671       -1.4727095436       -6.1210789857
 H         3.4858874434       -0.2422058772       -7.0588683163
 H         3.5731650341       -2.0318760650       -7.5552886232
 H         1.1552684415       -1.7987313169       -7.5025191783
 H         1.7711919913       -3.4072441264       -7.0132071765
 H         0.4768962684       -2.6369451776       -6.0529857257
 H         1.6602744419        2.9158823626       -4.9486039837
 H         0.6205993621        1.6176947947       -4.1176474564
 H         3.4575905066        6.4433624087       -2.7157704521
 H         1.9174198741        7.1855128328       -3.2788079454
 H         1.9343902559        6.3293828918       -1.6915548038
 H         3.7464718869        4.9011770309       -0.7377458949
 H         3.6960926377        3.1658494274       -0.4650401035
 H         2.2011436153        4.0895413560       -0.2641273559
 H         4.7139978035        4.9456769486       -3.0256692333
 H         5.1796495477        3.2306526300       -2.8892120121
 H         4.1314965055        3.8544514940       -4.2514789874
 Na        1.2128689590       -0.6035434957       -2.1291149214
