155

 C        -5.0958438100        7.5719462094        4.1557175551
 C        -4.5740433466        6.6100614354        5.2164789587
 C        -5.5684645200        6.4009116816        6.5015113778
 C        -6.7014681236        5.3334800589        5.9939577742
 C        -6.5085256387        3.8627296962        6.3758143471
 C        -4.9582472909        5.9943735135        7.8900426375
 C        -6.1496057600        7.8538126514        6.7856311174
 O        -3.5232762862        6.0284440876        5.0993908174
 O        -7.6584911089        5.6967381410        5.4037824905
 C        -7.2514043999        2.9314417078        5.4091159116
 C        -6.7558953028        1.5428961062        5.5384191875
 C        -7.2958561755        0.4708870813        4.4420297416
 C        -6.5614774951        0.9230538580        3.2058388949
 C        -5.1174564855        0.3345160347        2.8381124751
 O        -5.9940443416        1.1653997419        6.3769702688
 O        -6.9836951493        1.7654618191        2.4424388889
 C        -6.9028784874       -0.9912785034        4.7006864921
 C        -8.8591848898        0.6533233725        4.2203959881
 C        -4.8676068054        0.7137626225        1.4338898271
 C        -3.4617298009        0.2300712399        1.0589894163
 C        -2.7114059090        1.0466233093       -0.0354760669
 C        -1.7863652881        0.1448182733       -0.9377273618
 C        -2.6136264769       -1.0497833116       -1.4968245246
 C        -3.7581226953        1.7763207035       -1.0739243924
 C        -1.8576994358        2.2674916371        0.6251102782
 O        -2.8240290939       -0.6057437588        1.6265622485
 O        -0.6011818556        0.4107327116       -1.1094783823
 C        -2.0589981555       -2.3238855163       -0.7884597393
 C        -1.6601353831       -3.4596815363       -1.9239675685
 C        -1.7925972249       -5.0012320803       -1.2811014128
 C        -0.8165861981       -5.2248346451       -0.0873028692
 C         0.7610158900       -5.1955717649       -0.3186100290
 O        -1.3950171437       -3.2680193985       -3.0856607083
 O        -1.2657975103       -5.5129535256        0.9690335651
 C        -3.2129825144       -5.1309706853       -0.7803433517
 C        -1.3579857805       -6.0891026952       -2.2944285216
 C         1.5791711357       -4.3769012191        0.7033963500
 C         1.4958697449       -2.9187172077        0.3193986929
 C         2.1844975012       -1.7912248393        1.2292640875
 C         3.5524803454       -1.6834599430        0.3620145297
 C         4.9057265390       -1.9834033304        1.1266087176
 C         1.5991965560       -0.2927027622        1.1653480613
 C         2.5385968671       -2.1875688840        2.6800604778
 O         0.9176894091       -2.5668974147       -0.6820380113
 O         3.5309305929       -1.1670600216       -0.7153996296
 C         6.1373194809       -2.1225493861        0.2094154650
 C         5.9204598753       -3.1915791173       -0.9244510655
 C         6.5526064222       -3.1536900511       -2.2729982924
 C         5.3168167113       -2.8715415344       -3.1665007356
 C         4.5478965688       -4.1380056136       -3.6912102839
 O         5.1453255716       -4.0877969135       -0.6078205375
 O         5.0649783950       -1.7786589162       -3.6391235583
 C         7.5265703935       -1.9479712896       -2.5658896762
 C         7.2742563341       -4.5742392916       -2.4292507640
 C         3.5845335342       -3.7433761933       -4.7263000745
 C         2.8112043011       -2.4369431951       -4.5248362277
 C         2.4198624886       -1.5430872806       -5.7600039217
 C         1.7751637350       -0.3141181334       -5.1144610699
 C         2.5621168306        0.9568260116       -5.0786604510
 C         3.4980722016       -1.3034762384       -6.8085889938
 C         1.2670502312       -2.3893058537       -6.4113326902
 O         2.4974743722       -2.1119408816       -3.3666438647
 O         0.6311731251       -0.4728401472       -4.6907044746
 C         1.9999334869        2.0758314068       -4.2866830311
 C         2.3674910857        2.3756595166       -2.7555864022
 C         3.0766144851        3.7258950022       -2.5040675964
 C         2.0861541958        4.8521266924       -3.1335370514
 C         2.4430181305        6.3711928613       -2.6754946058
 O         2.1627388195        1.6034549842       -1.8005972293
 O         1.0317188769        4.6169678230       -3.6648727784
 C         3.1438102852        3.7944824841       -0.9094534266
 C         4.5528570287        3.7944837174       -3.1384269512
 H        -6.1147552583        7.6440497870        4.1259369541
 H        -4.7309197484        8.5072944916        4.4419783618
 H        -4.6757644633        7.3128990177        3.2330713988
 H        -5.4936917888        3.6235659765        6.2635838214
 H        -6.8127421891        3.7100464631        7.3949887599
 H        -4.2305464119        6.7599070348        8.1596998284
 H        -4.5192252337        5.0413812020        7.8481246658
 H        -5.7151296165        5.9742782317        8.6455506559
 H        -7.0865955772        7.9790994018        6.2745214422
 H        -6.2436348413        8.0082133873        7.8872656434
 H        -5.4135215582        8.5846486975        6.5394553876
 H        -8.2806182508        2.9866308661        5.4043064620
 H        -7.0618116589        3.2754640218        4.3949020888
 H        -4.4426871946        1.0040654862        3.3836981323
 H        -5.0687669911       -0.7646335624        2.9168195996
 H        -7.4426797965       -1.4696109346        5.5985063102
 H        -5.8109651298       -1.0020458999        4.9502910742
 H        -6.9217192531       -1.6308300358        3.8062606765
 H        -9.3200621821       -0.0648840225        3.5351289095
 H        -9.4092305897        0.5599233803        5.1454040638
 H        -8.9517288707        1.6075303814        3.6990615881
 H        -5.0614353180        1.6986337058        1.1548422258
 H        -5.6682081189        0.1936079847        0.8466912739
 H        -3.7524655197       -0.9580547738       -1.4153788436
 H        -2.5350219034       -1.0155969837       -2.6027829746
 H        -3.1392851673        2.3927445277       -1.6600737375
 H        -4.4178673473        2.3412407930       -0.4007628760
 H        -4.2738189887        1.0990331001       -1.7806641204
 H        -1.2241693744        1.8767571803        1.3692152568
 H        -1.2532346655        2.7075701018       -0.1067607452
 H        -2.5381968628        2.9371684250        1.0106087162
 H        -1.0970442241       -1.9861760255       -0.2910119511
 H        -2.7849924603       -2.6255602389       -0.0562872206
 H         1.1797463710       -6.1746715453       -0.2326797296
 H         1.0228482336       -4.8085489165       -1.3163938043
 H        -3.4860924482       -6.0557677004       -0.2535537485
 H        -4.0033358599       -5.0118441007       -1.5658358261
 H        -3.4766756803       -4.4109003574       -0.0228813679
 H        -1.6341373152       -5.7674194114       -3.2341356834
 H        -0.2457568412       -6.1826219363       -2.3306655781
 H        -1.7069044186       -7.0819097647       -2.0879396173
 H         2.6040716547       -4.7286694374        0.6050915988
 H         1.2597380387       -4.6193486111        1.6759923388
 H         5.0531962344       -1.2022031687        1.8620173347
 H         4.8681869186       -2.9477488072        1.7047298476
 H         1.5360623368       -0.1325898634        0.0982813904
 H         2.3122257641        0.3348721524        1.5845400467
 H         0.6348795336       -0.2734930183        1.6882280344
 H         3.1080228253       -1.3567593647        3.1190015468
 H         1.6072381077       -2.2270392729        3.2670146554
 H         3.0109949395       -3.2348371292        2.8692174660
 H         6.4172123353       -1.1433064835       -0.1639938381
 H         7.1606576275       -2.5883751003        0.6271057546
 H         5.3059353931       -4.7761405231       -4.2084827168
 H         4.1039093823       -4.7110993098       -2.8940054314
 H         7.0625963727       -1.0873794589       -2.1233853134
 H         7.7946801690       -1.8459869629       -3.6188204986
 H         8.4634566210       -2.0728564864       -2.0230509803
 H         7.2306338374       -4.7867191358       -3.5252850244
 H         8.3164078075       -4.4854659691       -2.1363830963
 H         6.9021455428       -5.3795563887       -1.8063147018
 H         2.7950508675       -4.5135816976       -4.8570631356
 H         4.1661238200       -3.7671356586       -5.6603694379
 H         3.6195148140        0.6400586939       -4.6160658261
 H         2.7840947813        1.2230699900       -6.1205819908
 H         4.5364356743       -1.1407815985       -6.3963575890
 H         3.1987057881       -0.4335153235       -7.3762492784
 H         3.5624978200       -2.2035226954       -7.4316273984
 H         1.4232930011       -2.2128327192       -7.4731896561
 H         1.4950542087       -3.4570586889       -6.2861812323
 H         0.2442990162       -2.1920512029       -5.8951005111
 H         2.2946711272        2.9731118442       -4.8252911458
 H         0.9247485535        1.9169450839       -4.3242300167
 H         3.3177340356        6.6947860094       -3.1495825869
 H         1.6271850738        6.9953272436       -3.0306342642
 H         2.4039494652        6.4289852464       -1.6072289893
 H         3.5103924282        4.7889048476       -0.6200119130
 H         3.6708296203        2.9637780240       -0.5080294404
 H         2.1634427114        3.7048913535       -0.5547738127
 H         4.8310198483        4.7568052285       -3.5954088319
 H         5.2271630244        3.6717429310       -2.2808895049
 H         4.6924625817        3.0195871096       -3.8771120979
 Na        1.1424710609       -0.7362014718       -1.9996124132
