155

 C        -5.6130852202        7.6327136534        4.1694198464
 C        -4.8851129544        6.7473145704        5.2626585216
 C        -5.7914164181        6.4182119842        6.6124179529
 C        -6.7404734122        5.3257507336        5.9846954793
 C        -6.5351543450        3.8571933306        6.2678048833
 C        -4.9286086193        5.8674786668        7.7883364065
 C        -6.6092710786        7.5571560686        7.2601038990
 O        -3.7700645730        6.3369067507        5.1256958935
 O        -7.6298884008        5.6767015805        5.2178835049
 C        -7.3178811736        2.9898506920        5.2552119251
 C        -6.8821848481        1.5444761934        5.5075941100
 C        -7.3749402973        0.3923843246        4.5292130143
 C        -6.6109844085        0.6967803181        3.1395351848
 C        -5.2860553149        0.0087471394        2.7173478955
 O        -6.0753499653        1.2716945614        6.3642781082
 O        -7.1571187491        1.5231853354        2.4352119118
 C        -7.0176852957       -0.9718133663        5.0504662486
 C        -8.8605743868        0.5399169970        4.3845039054
 C        -4.8294723103        0.7197306616        1.3578994056
 C        -3.3445265615        0.3347173804        0.9238809285
 C        -2.6414846071        1.1074994932       -0.3244494391
 C        -1.5892095285        0.0821346604       -1.0300335701
 C        -2.1034166623       -1.0685814583       -1.9216440178
 C        -3.5828226220        1.6908241841       -1.4200913131
 C        -1.8134168276        2.1357385781        0.4182911972
 O        -2.6994630402       -0.4194204653        1.5496118801
 O        -0.3762541387        0.2112570379       -0.9450358392
 C        -2.3951287427       -2.4366158239       -1.2039801104
 C        -1.5201523219       -3.5336735321       -2.0217211086
 C        -1.6458616868       -5.0112380011       -1.6067422526
 C        -0.6893045444       -4.9766672389       -0.3332682580
 C         0.7972921430       -5.1357391119       -0.5465808185
 O        -0.6920405059       -3.1927312919       -2.8106829340
 O        -1.2117480185       -4.9237178489        0.7533145087
 C        -3.0831648581       -5.4322436009       -1.1202311268
 C        -1.1329922738       -5.9954585512       -2.7466684771
 C         1.5039832116       -4.3425083339        0.6525032712
 C         1.3566909415       -2.8260152978        0.4580291853
 C         2.1447461127       -1.9896562004        1.4372193070
 C         3.3870739218       -1.3584573563        0.5690520133
 C         4.7789894581       -1.4628410969        1.1875694306
 C         1.2399163891       -0.7656976439        1.8887035518
 C         2.5620261195       -2.6551137320        2.7679732237
 O         0.7647310420       -2.3657457490       -0.4816068641
 O         3.2123145571       -0.7732262575       -0.4649182795
 C         5.7333126786       -1.4774361109       -0.0278866640
 C         5.6181074956       -2.7518188200       -0.9275342216
 C         6.5754265159       -2.9733584808       -2.1860051630
 C         5.7372701821       -2.9619271011       -3.5070033281
 C         4.7386496096       -4.1584051738       -3.7135650890
 O         4.8330435954       -3.6136516750       -0.6795138046
 O         5.5540958734       -1.9800735078       -4.1655865170
 C         7.6332318772       -1.7970245127       -2.3440721311
 C         7.1997182124       -4.3910080298       -2.0176443934
 C         3.6304707953       -3.9632549888       -4.8110500031
 C         2.7125679896       -2.7707973820       -4.4122930831
 C         2.2850710482       -1.6813308813       -5.4796967888
 C         1.8941593634       -0.3865595604       -4.7781567584
 C         2.7638873714        0.9335162618       -4.9923273411
 C         3.3505917078       -1.5172214996       -6.7072888879
 C         0.9864820830       -2.1989373087       -6.1019309797
 O         2.2745911069       -2.7989128549       -3.2764001445
 O         0.7412242233       -0.4069026093       -4.3949433113
 C         2.1324319116        2.1664346471       -4.4450543353
 C         2.5234817909        2.4188902354       -2.9644784441
 C         3.1594961291        3.7424147262       -2.4854407208
 C         2.1731524131        4.9529245346       -2.7956009880
 C         2.7645721103        6.3537604374       -2.6672966027
 O         2.4166987942        1.5144893457       -2.1535749081
 O         1.0969893441        4.7580045643       -3.2717007954
 C         3.1507003090        3.5399229087       -0.9449593204
 C         4.5947943832        3.8408764389       -3.0425335152
 H        -6.5916578865        7.3158700515        3.7936473014
 H        -5.8621153735        8.5620785459        4.6348313958
 H        -4.9148499508        7.7331730752        3.4039266360
 H        -5.4905125938        3.6047970741        6.3318551218
 H        -6.9541528822        3.6208210671        7.2520076099
 H        -4.2119326566        6.6697050828        8.1330786901
 H        -4.2933834355        5.0335835883        7.4387536388
 H        -5.6437239942        5.5637458078        8.5013534111
 H        -7.0977349257        8.1261137894        6.4866743363
 H        -7.4297270956        7.0949981479        7.8788398045
 H        -5.9151236243        8.0734575023        7.9176372019
 H        -8.3995488381        3.1448471088        5.3314305268
 H        -7.0179701035        3.3044831758        4.1994567930
 H        -4.5825064965        0.3285002011        3.5071836071
 H        -5.3984077835       -1.0901582319        2.7092527024
 H        -7.2708970691       -1.0388147539        6.1194462466
 H        -5.9725148964       -1.2363940472        5.0338452589
 H        -7.5506015541       -1.8499861479        4.5701719749
 H        -9.2776034409       -0.2134313400        3.7269076154
 H        -9.3453619217        0.3833684709        5.3591065350
 H        -9.1011521721        1.4886366378        3.9406904302
 H        -5.0267392478        1.7474085454        1.2701597496
 H        -5.4676180441        0.1859550148        0.5364345434
 H        -3.0350577171       -0.7699539617       -2.4874007204
 H        -1.4299245714       -1.2532132537       -2.7195499569
 H        -2.8932832546        1.9545345653       -2.2652925491
 H        -4.1497719536        2.5090487116       -1.0910762715
 H        -4.2454159476        0.8835133887       -1.7531222998
 H        -1.0259323844        1.5959230736        1.0123089123
 H        -1.3785586023        2.8342420114       -0.2861818798
 H        -2.4695182128        2.6252582980        1.1225334380
 H        -2.1134848991       -2.4205632259       -0.1648613737
 H        -3.4793264687       -2.6891464236       -1.3202315675
 H         0.9379798837       -6.1843621303       -0.6213067990
 H         1.1327757094       -4.6616988855       -1.5190548933
 H        -3.1379772070       -6.4971595114       -1.1411198907
 H        -3.8923398444       -5.2525212216       -1.7843496381
 H        -3.4291867983       -5.0871990147       -0.2198107261
 H        -1.9740458270       -6.3051458656       -3.2559140880
 H        -0.4048636625       -5.4896236796       -3.4204603393
 H        -0.5664226263       -6.8428685974       -2.3854611426
 H         2.6028160969       -4.5851498595        0.6734539564
 H         1.0250310208       -4.6217552957        1.6157808121
 H         5.1188783136       -0.6360212127        1.7833497221
 H         4.9995925280       -2.3123313754        1.8566965348
 H         1.1667079522       -0.1161676289        1.0516831606
 H         1.7620112227       -0.3204477875        2.6623511437
 H         0.2824454088       -1.2001229393        2.1608065751
 H         2.7788174433       -1.9239205857        3.5269998882
 H         1.7714883250       -3.2172652235        3.1954123616
 H         3.3993137533       -3.3895034055        2.6553795294
 H         5.5246815343       -0.6759162793       -0.6786003760
 H         6.8317482485       -1.2979651780        0.3542678891
 H         5.2880881661       -5.0629493940       -4.0368564242
 H         4.2766977619       -4.4000176958       -2.7842263103
 H         7.1238666714       -0.8808416291       -2.6748509013
 H         8.3203355244       -1.9528504603       -3.1198012976
 H         8.0740582674       -1.6008823059       -1.3735537534
 H         7.9703756646       -4.4091087851       -2.8329119222
 H         7.6718520842       -4.6169140946       -1.0875743378
 H         6.5677293112       -5.1928550337       -2.2080506410
 H         3.2802060257       -4.9448645531       -4.9779163205
 H         4.0920231347       -3.7865064097       -5.7959041273
 H         3.8711153307        0.7948806946       -4.5970653951
 H         2.9455359725        1.0130020371       -6.0534390043
 H         4.3045271283       -1.6831541879       -6.1505539197
 H         3.3628102521       -0.5255424619       -7.1298608366
 H         3.1527595338       -2.3528530204       -7.4296321947
 H         0.4741634065       -1.2458418819       -6.5382448105
 H         1.2240185240       -2.9231873682       -6.9682505440
 H         0.4220533341       -2.6530254816       -5.3308345245
 H         2.4427438557        2.9412231647       -5.1700970449
 H         1.0451978192        1.9481068465       -4.4445836442
 H         3.3296291987        6.4452621698       -3.5435679088
 H         1.9639267848        7.0620640202       -2.6477868702
 H         3.3251139606        6.4466340140       -1.7175153850
 H         3.7705412639        4.3357789102       -0.5171863072
 H         3.4819154178        2.5960853539       -0.6765312843
 H         2.1814394088        3.6913006111       -0.5575262470
 H         4.9261276519        4.7529126691       -3.5437448972
 H         5.3148808381        3.7597922654       -2.2448298972
 H         4.7487330675        2.9908608405       -3.7279623501
 Na        1.3992469335       -0.9567816535       -1.9981187598
