155

 C        -6.2257057975        8.2368150737        4.5870077489
 C        -5.5399389903        7.1157912856        5.4148175905
 C        -6.3293224281        6.3245227705        6.5421130939
 C        -6.9195442115        5.0908182482        5.8520154105
 C        -6.0423218937        3.8210897305        5.5768815244
 C        -5.2467564648        5.8135157141        7.5835875186
 C        -7.4281790275        7.0961778317        7.3236506169
 O        -4.3807796328        6.7731458833        5.2285381160
 O        -8.0946111566        5.2032847569        5.4598394554
 C        -6.9841516591        2.7426784445        5.0778021586
 C        -6.4242912212        1.3276728055        5.1502495411
 C        -7.2442586841        0.1677127002        4.3348122413
 C        -6.5686930356        0.5157473939        2.9934160946
 C        -5.1498895113        0.0778997734        2.5037898856
 O        -5.4852546446        1.0533323328        5.8364548075
 O        -7.2097405499        1.1878731421        2.2400820242
 C        -6.9166143199       -1.2154519444        4.9376454189
 C        -8.7214187294        0.4205388142        4.1950403767
 C        -4.9932691217        0.8553740908        1.1389701881
 C        -3.6653391024        0.2744364881        0.4311530548
 C        -2.7558451271        1.1529422572       -0.5105278607
 C        -1.7298915198        0.2683725536       -1.1563046074
 C        -2.1001892253       -0.7214751709       -2.1848802035
 C        -3.8418737949        1.5646621190       -1.5897082748
 C        -2.0091585473        2.2664084129        0.1556578452
 O        -3.3350949158       -0.8804468505        0.7141593518
 O        -0.5557392365        0.3958579457       -0.7067325881
 C        -2.3285387535       -2.1943745827       -1.5410530650
 C        -1.1932879644       -3.1224184282       -2.0300819338
 C        -1.3212490050       -4.6633173549       -1.8984651210
 C        -0.5600544557       -5.0341076234       -0.4704391873
 C         1.0465679463       -5.2693693737       -0.5610992696
 O        -0.1424963806       -2.7174359571       -2.5019464114
 O        -1.2418744345       -5.1963722224        0.5132200652
 C        -2.7750223020       -5.2007623086       -1.8427317549
 C        -0.5844521297       -5.3679960823       -3.0641622322
 C         1.5509693916       -4.8060965586        0.8030424788
 C         1.4934738705       -3.2700574990        0.8627514263
 C         2.3186287726       -2.2930855855        1.7960258030
 C         3.1182759000       -1.3377166304        0.8011429830
 C         4.5337672752       -0.9556940870        1.0698927080
 C         1.3004851656       -1.4704096681        2.6100989316
 C         3.2450983091       -3.0551227462        2.7799154865
 O         0.8226992348       -2.6316075421        0.0604533909
 O         2.6050045555       -0.6777038512       -0.1102650559
 C         5.3341617218       -0.8289240399       -0.2458910805
 C         5.2667904906       -2.3183368168       -0.8421354194
 C         6.3567274489       -2.6106097198       -1.8606595789
 C         5.6883207643       -3.0103864295       -3.2821762093
 C         4.7582261001       -4.2102156576       -3.3451505683
 O         4.4648837491       -3.1435153107       -0.5126063935
 O         5.9172080764       -2.2837682375       -4.2155431481
 C         7.4314347945       -1.3870532741       -2.0622623354
 C         7.1527248300       -3.8599231648       -1.4192068840
 C         3.5440080347       -3.8852520665       -4.4438765201
 C         2.8927322576       -2.4894340262       -4.1914474545
 C         2.1883021603       -1.6269547395       -5.3289177903
 C         1.8243906175       -0.2194004760       -4.7678504192
 C         2.7944803090        0.8270927967       -5.1902867047
 C         3.1864989255       -1.5414855623       -6.5627356607
 C         0.9076345913       -2.4169661572       -5.7199482503
 O         3.0221572465       -1.8946654947       -3.1410882139
 O         0.7026559169       -0.0413033271       -4.3360689935
 C         2.6233679828        2.1186720495       -4.3977210008
 C         2.9441153335        2.0349739819       -2.9230926436
 C         3.4226284755        3.3763630975       -2.3417368913
 C         2.3684437479        4.5326421477       -2.7544917885
 C         2.7167924325        6.0129390103       -2.8437899783
 O         2.8180222656        1.0255757035       -2.2818344553
 O         1.1776287159        4.2276911001       -2.8149175404
 C         3.4693544996        3.3250767777       -0.8016331514
 C         4.8900342155        3.5740057171       -3.0072390219
 H        -7.2281536389        7.8850025770        4.2532734880
 H        -6.1966642253        9.1841609219        5.2008885882
 H        -5.5462818668        8.5431441311        3.6903168696
 H        -5.3173491391        3.9944858676        4.7511354560
 H        -5.4276779671        3.4632179683        6.4289409507
 H        -4.6192524431        6.6448344401        7.8250238891
 H        -4.7109285050        5.0420040214        7.0603718494
 H        -5.7499218618        5.4942478349        8.4781414022
 H        -8.0116184222        7.6332097963        6.6036160027
 H        -7.9614265108        6.3669559991        7.8983590292
 H        -6.9259322301        7.8141536994        7.9839752019
 H        -8.0029999330        2.8389448303        5.6564515015
 H        -7.1983896729        2.9420250059        3.9762011734
 H        -4.4630902583        0.2184542582        3.3589293337
 H        -5.0617092937       -0.9588918548        2.4547965088
 H        -7.0577956102       -1.3223051044        5.9561264130
 H        -5.9068137639       -1.5499408478        4.8074188966
 H        -7.4892200674       -2.0849054290        4.5480975433
 H        -9.0655823233       -0.2916723553        3.4537714716
 H        -9.2468188906        0.1698009392        5.1747908598
 H        -9.0023855335        1.4339016875        3.9768305928
 H        -4.8549739330        1.9008599340        1.4053751668
 H        -5.8658535296        0.5660251622        0.4369870319
 H        -3.0562105917       -0.3433665624       -2.6577721360
 H        -1.2974459779       -0.7252293291       -2.8408301400
 H        -3.3880784438        1.9208719136       -2.5945529809
 H        -4.3986246920        2.3933133174       -1.2070286515
 H        -4.5737459840        0.8000904000       -1.8231814238
 H        -1.3318011612        1.9526862886        0.9190260420
 H        -1.4226809822        2.7991760957       -0.5562321765
 H        -2.7325431595        3.0110396406        0.4950230537
 H        -2.3965319387       -2.1318929032       -0.5230378998
 H        -3.2967012903       -2.7141552338       -1.8131631665
 H         1.1018840129       -6.3263396052       -0.7116973206
 H         1.4813850685       -4.7448512609       -1.5028070609
 H        -2.7331743129       -6.3226792243       -1.8731906568
 H        -3.4284314413       -4.8371413780       -2.6482719363
 H        -3.3817655015       -5.2026107857       -0.9184197565
 H        -1.2300986200       -5.4017263518       -3.9849792759
 H         0.2883731578       -4.8291453797       -3.4410873740
 H        -0.4402679579       -6.3926500244       -2.7117617422
 H         2.5076078437       -5.2624125107        1.0673830353
 H         0.8724217423       -5.1896122010        1.6382302766
 H         4.4228528944        0.0743693710        1.4801635420
 H         5.0946757927       -1.5522350738        1.7652311912
 H         0.5281643060       -1.0540168860        1.9564142659
 H         1.9583031789       -0.7412573496        3.1691226406
 H         0.9573714226       -2.1560388380        3.4042087359
 H         3.9618309874       -2.5456836853        3.4433856708
 H         2.6454166538       -3.7131308493        3.3768866504
 H         3.9871340858       -3.6279986964        2.2432724442
 H         4.8458868111       -0.0890755409       -0.8670234708
 H         6.3053470857       -0.5335170769        0.0154374414
 H         5.4114303765       -5.0301320022       -3.7281795225
 H         4.3392030657       -4.4351247455       -2.3749290785
 H         6.9157642829       -0.3817984152       -2.1017851470
 H         7.9737799485       -1.6120380194       -2.9419660754
 H         8.2635686181       -1.2552248221       -1.3410715458
 H         7.9366933971       -4.1251064838       -2.1596052348
 H         7.7262496200       -3.6960796455       -0.4629105166
 H         6.5429217420       -4.7697692757       -1.2615725908
 H         2.8343323116       -4.6593334621       -4.2321537378
 H         3.7341512091       -3.9798328184       -5.5701104473
 H         3.8317278487        0.5421592866       -5.1295447545
 H         2.4424443518        0.9514764908       -6.1652332748
 H         3.9218005176       -0.9102162444       -6.2082395851
 H         2.5931288780       -1.2473969585       -7.4096129986
 H         3.6484612146       -2.5287933206       -6.6696989825
 H         0.3868214235       -1.8933643051       -6.4505137113
 H         1.1584227191       -3.3789683913       -6.0625702609
 H         0.2225961636       -2.5257950867       -4.7832919686
 H         3.1786568538        2.9143958801       -4.9096234448
 H         1.5909630098        2.4756171263       -4.4130903012
 H         3.5678055005        6.1794219303       -3.5075188920
 H         1.7695496302        6.5411378176       -3.0269734291
 H         3.1539847654        6.1332335049       -1.8242307943
 H         4.2094565807        4.0781648178       -0.4960216244
 H         3.8736419563        2.3913921191       -0.3821678406
 H         2.4828084202        3.5508190043       -0.2670323773
 H         5.4566893545        2.6931592662       -3.2598396634
 H         4.7788914069        4.1542880275       -3.8966916844
 H         5.6449124209        4.1522612750       -2.3799358883
 Na        1.2634207808       -0.6825363854       -2.0894553837
