155

 C        -6.9256034446        8.1497699601        4.8834525812
 C        -6.0172365270        7.1450833054        5.5190943140
 C        -6.5937933815        6.2588592664        6.7389352548
 C        -7.2941125677        5.0212924578        6.0527357487
 C        -6.3653792322        3.7832906387        5.7775896367
 C        -5.4187052608        6.0518279204        7.6672271592
 C        -7.6247598018        6.9827525602        7.5776489566
 O        -4.8986251428        6.9745246798        5.1144465948
 O        -8.5290187992        5.0686517754        5.8116144364
 C        -6.9073265227        2.7760263581        4.7047546185
 C        -6.2896660343        1.3718485492        4.8210292871
 C        -7.0518271694        0.1213728552        4.1788499183
 C        -6.8964461475        0.3073771213        2.6579597457
 C        -5.6353661953       -0.1477087135        1.8916956677
 O        -5.1633369958        1.2413992071        5.2137955745
 O        -7.8793324788        0.7758050509        2.1189937390
 C        -6.3318326667       -1.0786810975        4.7395781667
 C        -8.5030069000        0.1346440890        4.5456613575
 C        -5.0345499970        0.9733167988        0.9392640743
 C        -3.7109698830        0.3726272811        0.0988161737
 C        -2.8036968679        1.2124171585       -0.8013723510
 C        -1.6748850093        0.3298816674       -1.5026270697
 C        -2.0524207356       -0.8475151361       -2.2947548464
 C        -3.7931890953        1.9061376337       -1.8477478408
 C        -2.1702636544        2.4197809514        0.0160394465
 O        -3.6317573197       -0.8333832547        0.1910155729
 O        -0.4930048013        0.5294963513       -1.2509351254
 C        -1.7458280432       -2.1300341504       -1.4499923033
 C        -0.7634086108       -3.1106433547       -2.1844128186
 C        -1.0518533531       -4.6664337362       -2.1618923959
 C        -0.3974338408       -5.0952266336       -0.7932701323
 C         1.1155279059       -5.1100415883       -0.7193145522
 O         0.2939999287       -2.7718715523       -2.7508749836
 O        -1.1736338996       -5.3339069654        0.0961943535
 C        -2.5952661379       -5.1061647874       -2.2122251894
 C        -0.2098740588       -5.2799278721       -3.3398227041
 C         1.5966909601       -4.8422016039        0.7246716681
 C         1.4689913828       -3.2096123204        0.9039306581
 C         2.3735224243       -2.3697653747        1.9419501604
 C         3.0672607711       -1.1886035797        1.1588620962
 C         4.5801507735       -0.7282147955        1.3191567489
 C         1.3159537255       -1.6789624688        2.9824618256
 C         3.3977628356       -3.2679475595        2.6606432888
 O         0.7112439800       -2.5935602456        0.1452094954
 O         2.4616012869       -0.4239617819        0.3389415096
 C         5.2954553154       -0.7628811776       -0.0069332265
 C         5.5685755626       -2.2247179995       -0.3748493270
 C         6.5389575224       -2.5399020235       -1.6166895103
 C         5.7003058867       -2.6972716652       -2.9713667610
 C         4.7224274667       -3.9679448717       -3.1098747992
 O         5.1222676147       -3.2753154301        0.0740227508
 O         5.8524413402       -1.8803577885       -3.8436527534
 C         7.5130923796       -1.4345406106       -1.7891112903
 C         7.4357912509       -3.8523050196       -1.3773351903
 C         3.6155060868       -3.8551609218       -4.1523566040
 C         2.7592684875       -2.4530063273       -4.1302458940
 C         2.0296352138       -1.8835142882       -5.3488000589
 C         1.6196347158       -0.4352715802       -4.7923137871
 C         2.7127071541        0.6534505102       -5.0531080592
 C         2.9702147223       -1.6973870015       -6.6114152690
 C         0.8226697930       -2.6887249219       -5.9570804666
 O         2.8752439734       -1.8856493705       -3.0832116230
 O         0.4773806163       -0.1439921207       -4.5454993213
 C         2.5682659726        1.9655527451       -4.3619438391
 C         2.9659797127        1.9581169429       -2.8985100198
 C         3.4765221630        3.3784117928       -2.3244364842
 C         2.3981186514        4.5349319425       -2.5506960787
 C         2.8313778438        5.9241922313       -2.1679458508
 O         3.1440567287        0.9259418430       -2.2599679541
 O         1.2479647754        4.2441718622       -2.8570347417
 C         3.6539551144        3.2383995430       -0.7629464383
 C         4.8882113762        3.6513763738       -2.9977270022
 H        -7.3252398091        7.6128020891        3.9542964288
 H        -7.6055544850        8.4969081777        5.6469919492
 H        -6.4101293277        9.0901498948        4.5420350299
 H        -5.3778356268        4.1375442295        5.4016544112
 H        -6.2349582243        3.2433750242        6.7845458320
 H        -4.9383900277        7.0944341748        7.6444358042
 H        -4.6489734781        5.3258301207        7.2896617124
 H        -5.7966898853        5.7649538190        8.6278963573
 H        -8.5456400020        7.0533971715        7.0463729721
 H        -7.8451993548        6.4973789019        8.5641209750
 H        -7.1715372246        7.9087513563        7.8171500181
 H        -7.9471009005        2.7168462610        4.7650053655
 H        -6.8468249786        3.1257321584        3.6382326543
 H        -5.0286703629       -0.4687934808        2.6886727239
 H        -6.0824857356       -1.0626812368        1.3201336628
 H        -6.7973066112       -1.3350737163        5.6738537903
 H        -5.3525492901       -0.9633976880        5.0257777568
 H        -6.2431100911       -2.0042270216        4.1546845743
 H        -9.1076610800       -0.7694693757        4.3823339590
 H        -8.5520744259        0.3368046030        5.5958192491
 H        -8.9314741049        0.8853134480        3.8681232637
 H        -4.8242982828        1.9446713152        1.4630153008
 H        -5.7821713513        1.2472066865        0.1817885828
 H        -3.0442650369       -0.7132670955       -2.6597734396
 H        -1.3585351096       -0.9580093396       -3.1135202276
 H        -3.3951321972        2.8559899962       -2.2291135031
 H        -4.6805698426        2.1279263870       -1.3775837527
 H        -4.1568771275        1.4003351324       -2.7443699033
 H        -1.3225193576        2.2378598126        0.7362280939
 H        -1.8207327391        3.1910749822       -0.6562534680
 H        -2.9358263626        2.8424618369        0.6621500599
 H        -1.5245004315       -1.7377318436       -0.4010433506
 H        -2.5638374361       -2.7330625131       -1.1936199650
 H         1.3390593200       -6.0260549381       -1.3244137428
 H         1.4075784585       -4.3224668951       -1.3556629144
 H        -2.5039661610       -6.1409941808       -2.6011790519
 H        -3.2665965826       -4.6364030414       -2.9840900735
 H        -3.1764479003       -5.1069805086       -1.2892616494
 H        -0.7885194041       -5.2213394910       -4.2015174830
 H         0.8237395439       -4.7726332711       -3.3365364887
 H         0.0404247810       -6.3533843282       -3.1320200372
 H         2.7690445892       -4.9843699229        0.8021979018
 H         1.3436335361       -5.4641954426        1.5856527911
 H         4.4881025858        0.2672761682        1.6492457932
 H         5.2153267937       -1.2710947334        2.0552541124
 H         1.2859980894       -0.5884810578        2.7289940478
 H         1.6500704196       -1.8334295808        4.0072950174
 H         0.3100377237       -2.2068070791        2.8082137317
 H         3.7621874349       -2.8317706624        3.5165219960
 H         2.9578015559       -4.1667654900        3.0342828478
 H         4.1599263307       -3.7323899046        2.0138861942
 H         4.6345956356       -0.3682928864       -0.7859382882
 H         6.3408336489       -0.1751988394        0.0049152461
 H         5.3944013406       -4.7925766649       -3.3205031317
 H         4.3224002116       -4.1997852056       -2.1220802579
 H         7.0911947389       -0.3887720913       -1.7548221785
 H         7.9086554278       -1.5688228517       -2.7790261136
 H         8.3016121694       -1.4805331460       -0.9792605331
 H         8.2113143409       -3.6885444252       -2.2077869171
 H         7.8649091825       -3.9916910581       -0.3915731686
 H         7.0004360257       -4.7719784093       -1.6916254422
 H         2.9238285305       -4.6821309669       -4.0128894448
 H         4.0728021219       -3.8601964847       -5.0860405033
 H         3.6635803150        0.1757151856       -4.6396060751
 H         2.7271246763        0.7806046849       -6.1621071880
 H         3.8417385758       -1.2549795444       -6.1400322098
 H         2.5303653992       -0.9629682169       -7.2583272742
 H         3.1166796256       -2.7165526844       -6.9802197464
 H         0.5832994591       -2.1334175526       -6.9011719356
 H         1.2741242954       -3.6479915910       -6.3707971840
 H        -0.0872612108       -3.0271560551       -5.3816234581
 H         3.1466169314        2.7411753277       -4.9012604976
 H         1.5256425496        2.3635174213       -4.5506516262
 H         3.9043338304        5.8798214307       -2.2156425642
 H         2.4160317236        6.5583209755       -2.9465135846
 H         2.4452084197        6.1389966452       -1.1032593137
 H         4.3819903600        4.0192533688       -0.3107567634
 H         3.8872831402        2.2068399085       -0.4563355254
 H         2.6793978870        3.4800220419       -0.2441338493
 H         5.4504744714        4.5248085056       -2.5826732248
 H         5.4746517624        2.7291867722       -2.8547804641
 H         4.8387768784        3.6779231210       -4.0603645916
 Na        1.4027464473       -0.6789871461       -1.7817744733
