155

 C        -8.2842371053        7.7683853931        5.0144517057
 C        -7.0455874060        7.1284933655        5.7371650640
 C        -7.3201101405        6.3682498608        7.0058069042
 C        -7.7641069312        4.8752387265        6.5902517588
 C        -7.0051695696        4.2381703467        5.4466013158
 C        -6.0204891603        6.2717665874        7.7581875061
 C        -8.4247361713        6.9229236053        7.8842037292
 O        -5.9280033759        7.3895067025        5.3829904190
 O        -8.5612938675        4.2752073855        7.3020379263
 C        -7.4537698334        2.6762569537        5.2900175404
 C        -6.4694573988        1.8597078891        4.4437378926
 C        -7.0200695762        0.5557088746        3.7929491415
 C        -6.8195035206        0.6481888366        2.2256884274
 C        -5.3263017516        0.6006241809        1.6542032663
 O        -5.3082327949        2.1428111657        4.3250936940
 O        -7.7634061975        0.8315061746        1.5186183820
 C        -6.3498596607       -0.8703341378        4.3261551126
 C        -8.5305797681        0.2751978190        4.0608136943
 C        -5.3233273692        0.6199766491        0.1501006338
 C        -4.1484211966       -0.1034199342       -0.4934730047
 C        -3.0212389934        0.7067817881       -1.2012438418
 C        -1.8838270205       -0.3378220346       -1.7741604868
 C        -2.4295619372       -1.4455856223       -2.6801450444
 C        -3.7315237351        1.2996515203       -2.4268121160
 C        -2.5170066880        1.8399657926       -0.2892657529
 O        -4.1571195393       -1.3469991811       -0.4252585762
 O        -0.7128098186       -0.1492735883       -1.5287548250
 C        -2.4333097074       -2.8858987260       -2.1458020834
 C        -1.1592772477       -3.6740075630       -2.4230246865
 C        -1.1081646337       -5.2293743314       -1.9631422005
 C        -0.1110153008       -5.2521513798       -0.6923418143
 C         1.3437061111       -5.1190688575       -0.9874778287
 O        -0.1037380926       -3.3547935357       -2.9952170494
 O        -0.5670370991       -5.5480754478        0.4114373116
 C        -2.5152680456       -5.7039689511       -1.4891176081
 C        -0.6565587406       -6.1745251107       -3.1309595336
 C         2.0271866858       -4.2343216405        0.0631994362
 C         1.3578837683       -2.9802305448        0.3681216444
 C         2.0319093436       -2.0624598933        1.3637899206
 C         3.4494191948       -1.5804712733        0.7939992558
 C         4.6410718646       -1.5609495489        1.7611658397
 C         1.1586233149       -0.8286548446        1.4268354638
 C         2.2207420271       -2.8376605857        2.6664634318
 O         0.3561342193       -2.6466639868       -0.2708137552
 O         3.5222162357       -1.2175283181       -0.3397474540
 C         5.8640332979       -1.2563506499        0.8565473126
 C         6.1910659208       -2.4505841137       -0.1236199304
 C         7.1558741060       -2.3691907140       -1.3625670951
 C         6.2880620193       -2.4133093183       -2.6920788332
 C         5.3395429199       -3.5892060910       -2.9206050177
 O         5.4587442315       -3.4051006606        0.1494125883
 O         6.3337300130       -1.4481358517       -3.4216229887
 C         8.0227403939       -0.9986542316       -1.2953028997
 C         8.1576020209       -3.5496736203       -1.2426216203
 C         4.5592447088       -3.4234934316       -4.2203514934
 C         3.4767627690       -2.1787765138       -3.9328496516
 C         3.0962291511       -1.3920736583       -5.1786689220
 C         2.2800151274       -0.1408752817       -4.6712948909
 C         2.7815017242        1.3174824470       -4.8926941734
 C         4.3093584063       -1.0336185317       -6.1147935395
 C         2.0714062460       -2.1536882874       -6.0159778171
 O         3.0792536494       -2.0411845772       -2.8182873012
 O         1.1767413288       -0.2634491765       -4.2107589781
 C         2.0309209184        2.2365214423       -3.9957904496
 C         2.6883674170        2.2710175799       -2.5228433487
 C         3.5074321523        3.5164004653       -2.0243560181
 C         2.5083271155        4.7330269440       -1.8695124888
 C         2.2534150646        5.3114802781       -0.4908132793
 O         2.4537847307        1.3934401444       -1.7251014651
 O         2.0774693185        5.2755836384       -2.8473743244
 C         4.1458147676        3.2190532492       -0.7122623097
 C         4.5645946356        4.0083617671       -3.0490163913
 H        -8.1706170137        7.7675937360        3.9176073881
 H        -9.1950314087        7.1282896503        5.2317714740
 H        -8.4793327063        8.8078780098        5.5049386089
 H        -7.1539038921        4.7480200709        4.3961563162
 H        -5.9773313997        4.3001094887        5.6517695881
 H        -5.6076510838        7.1803058312        8.1653560203
 H        -5.2274573124        5.9130878034        7.1413525562
 H        -6.0628351955        5.5776646777        8.5325030956
 H        -9.4113221473        6.8068984683        7.4112073819
 H        -8.5568347072        6.4475104090        8.8726028866
 H        -8.2885961896        7.9802710784        8.1239998290
 H        -7.3658560867        2.2182541052        6.3098977157
 H        -8.4662556418        2.6330386929        4.9617773934
 H        -4.7778856673        1.5318528335        2.0326346356
 H        -4.7448036197       -0.2931103213        2.0864761993
 H        -6.8578120568       -1.1119737350        5.3046821822
 H        -5.3648896941       -0.6829801638        4.6509780993
 H        -6.3968455026       -1.6539381412        3.5576052104
 H        -8.8311481524       -0.6626934526        3.5633542009
 H        -8.6249392913        0.1637964092        5.1043230499
 H        -9.1661139769        1.1024114349        3.6505289121
 H        -5.3036961340        1.6588373532       -0.2211785540
 H        -6.1839075123       -0.0018807350       -0.1904351721
 H        -3.4506066831       -1.3394551016       -2.8050809142
 H        -1.9549744382       -1.4437766216       -3.6870796942
 H        -3.8259892716        2.4031276886       -2.4944543046
 H        -4.7203291208        0.9465868917       -2.4113866632
 H        -3.2693073832        0.9648245808       -3.4089993932
 H        -2.1449197571        1.3312514865        0.5970630407
 H        -1.6305234742        2.2454711309       -0.6816496240
 H        -3.1723043935        2.6237424689        0.0128710595
 H        -2.6585785010       -2.9591092638       -1.0218925494
 H        -3.2444614427       -3.2540323568       -2.8126778313
 H         1.7398852267       -6.1462750990       -0.8334056920
 H         1.4893517046       -4.7944561865       -2.0259325157
 H        -2.4992687880       -6.7833264575       -1.2519512216
 H        -3.2068296077       -5.5661580227       -2.3717212786
 H        -2.7706631874       -5.0504324435       -0.6381484769
 H        -1.3445451440       -6.2806253084       -3.8853650007
 H         0.3028649992       -5.7066399084       -3.5252532653
 H        -0.3897108525       -7.1825487672       -2.7774182628
 H         3.1096697725       -4.0986932728       -0.2230518989
 H         1.9301813306       -4.7920176866        1.0654786913
 H         4.5105280908       -0.7224344763        2.4149792957
 H         4.7566161486       -2.4847507478        2.3346501373
 H         0.9236067716       -0.5148620358        0.4163274187
 H         1.6573279025       -0.0395457760        1.9020729672
 H         0.2249367084       -0.9051463351        1.9836148686
 H         2.4570058888       -2.1638252379        3.4582274155
 H         1.2428054446       -3.3544449529        2.8380563557
 H         2.9654122882       -3.6652423232        2.4999467923
 H         5.8117186517       -0.3190654165        0.3356324284
 H         6.7790689477       -1.0776135962        1.5927151950
 H         5.7074333818       -4.6019227273       -2.9087080672
 H         4.5755231589       -3.5418802535       -2.0885694164
 H         7.5609989038       -0.0011340501       -1.2686119564
 H         8.6195557815       -1.1066780140       -2.1948920824
 H         8.7501410369       -0.9986225256       -0.4607667363
 H         9.0109525670       -3.3156021336       -1.9754251943
 H         8.4508857951       -3.6820170781       -0.2060573663
 H         7.7353743960       -4.4913858828       -1.5979608044
 H         4.0360174492       -4.3697138704       -4.3609074950
 H         5.1204094535       -3.3147202953       -5.0898659981
 H         3.8711828187        1.3075303795       -4.7606829776
 H         2.6965600037        1.7495449028       -5.9779780362
 H         5.1152827908       -0.5597460075       -5.5209745392
 H         3.9010095144       -0.2813467166       -6.7886548571
 H         4.6261146326       -1.9168803324       -6.6195314755
 H         1.8790475892       -1.6564607793       -6.9735262369
 H         2.5466402390       -3.0866116800       -6.3735961310
 H         1.0407996270       -2.4822772834       -5.5415478333
 H         2.0905223895        3.2310590450       -4.3883865535
 H         1.0042787277        1.8920345036       -3.9591842533
 H         3.2092650470        5.6158135060       -0.1183265958
 H         1.5088863365        6.0914614490       -0.5129898872
 H         1.8099360510        4.4563103381        0.1208087099
 H         4.9835515988        3.8466816419       -0.5207708507
 H         4.3845886680        2.2236878099       -0.6807178606
 H         3.4464000664        3.3148197542        0.0923571672
 H         4.3908658259        5.0763528487       -3.3193987396
 H         5.5042030507        3.8673241665       -2.5144269263
 H         4.5193824125        3.3875922569       -3.8822482860
 Na        1.2691631248       -0.8454316913       -1.7724681572
