155

 C        -9.1337486199        7.5565607060        5.2812787859
 C        -7.8043219223        7.2212677339        5.8975838714
 C        -7.7053677141        6.2252321942        7.1457784248
 C        -7.6023305591        4.7501520275        6.7274054078
 C        -6.9404149128        4.3935009959        5.3487808975
 C        -6.3644613075        6.4238746702        7.8970411491
 C        -8.9555187029        6.3283966763        7.9951969006
 O        -6.7475398299        7.6633527467        5.4316384145
 O        -8.1406298940        3.9625986619        7.4566288612
 C        -7.4621602979        3.0005710355        4.9981278907
 C        -6.6769168957        2.0827656747        4.0518062774
 C        -7.2935052258        0.7656060265        3.6357128717
 C        -6.9875365628        0.7047536257        2.0763363933
 C        -5.7611665449        0.0588486301        1.4292692512
 O        -5.5321001970        2.3696506183        3.6360700958
 O        -7.8763101482        1.0825049778        1.3113316327
 C        -6.5933288097       -0.4119855903        4.4480274557
 C        -8.8011737838        0.6017652153        3.9037447330
 C        -5.3064745489        0.8023113681        0.1594474896
 C        -4.3103412485       -0.2303360776       -0.5835539366
 C        -3.1563801660        0.5246776293       -1.3255023854
 C        -2.1064323013       -0.4184470016       -1.7830930895
 C        -2.3352640842       -1.5194014172       -2.7335279561
 C        -3.8706725059        1.1962782240       -2.6596151959
 C        -2.5360597212        1.7503486937       -0.5263806056
 O        -4.3072642568       -1.3824347357       -0.2467294002
 O        -0.9696193575       -0.1079369332       -1.5619078529
 C        -2.2861153472       -2.9289270204       -2.0544982582
 C        -1.0560638540       -3.7877194631       -2.3411950499
 C        -0.9288835060       -5.2947291210       -1.8843519498
 C        -0.0088377556       -5.4367538744       -0.7098484808
 C         1.4579175524       -4.9935531753       -0.7197327563
 O        -0.1598917574       -3.3661730712       -3.0566024737
 O        -0.4232132416       -5.8223681663        0.3961189719
 C        -2.2423004026       -5.8820201706       -1.5449657636
 C        -0.3577575142       -6.0016730456       -3.0617818282
 C         1.7661256393       -4.3453970476        0.6308140183
 C         1.1638636293       -2.8337788189        0.5610372982
 C         1.9314385640       -1.7955076970        1.4755838063
 C         3.2473899603       -1.5731400088        0.6115391063
 C         4.5332970371       -1.6151636389        1.3376734870
 C         1.2806416341       -0.4065520149        1.3705591630
 C         2.1410080235       -2.2585630864        2.9485818515
 O         0.2678823062       -2.5250722220       -0.1555213548
 O         3.1914620205       -1.4958704051       -0.6000713162
 C         5.7190429403       -1.3724072778        0.4071364152
 C         6.4585067232       -2.6124637100       -0.0640132324
 C         7.5570981927       -2.2844282811       -1.1987796436
 C         6.7759523037       -1.9423144982       -2.4572064402
 C         5.9419405808       -3.1921908311       -3.0435541711
 O         6.0552499433       -3.7280226397        0.2055599107
 O         6.6537703938       -0.7939385327       -2.9072481586
 C         8.4818773557       -1.0260368143       -0.7461345228
 C         8.4781821865       -3.5064570254       -1.3826718593
 C         5.2900857593       -2.8974480760       -4.4640428864
 C         4.0898182731       -2.0992426337       -4.2790387972
 C         3.6416121863       -1.0987240161       -5.3928931921
 C         2.5738832495       -0.0432658722       -4.7748494951
 C         2.8771167387        1.5191918450       -4.7301642832
 C         4.8206011830       -0.2185033054       -5.9032099104
 C         3.0034933336       -1.7341178671       -6.6031359470
 O         3.2798387977       -2.3606020052       -3.3652019439
 O         1.4716034927       -0.4764549380       -4.3597461287
 C         1.9583173730        2.2107164888       -3.6921549257
 C         2.5244000859        2.0610106804       -2.2084158679
 C         3.2932379268        3.2140636554       -1.5934464697
 C         2.3198458045        4.4543909428       -1.5917078768
 C         1.3502772513        4.4993543008       -0.3779163685
 O         2.4593926428        0.9511235753       -1.6823187289
 O         2.3496215592        5.2673850954       -2.4897809338
 C         3.9743237360        2.9017444963       -0.2923377908
 C         4.5103590207        3.5408409327       -2.5597092875
 H        -9.6500978650        8.4462621003        5.5920458118
 H        -8.8741606005        7.7357446437        4.2208345790
 H        -9.7351169791        6.7095702840        5.4353160881
 H        -7.2685743537        5.0047065551        4.5607078459
 H        -5.8602431824        4.2899855712        5.2763309044
 H        -6.3674795975        7.2427668845        8.6835235402
 H        -5.5528694125        6.7380819342        7.1726734333
 H        -5.9100522472        5.5997274693        8.4388104257
 H        -9.8368583968        6.2281210335        7.4347423221
 H        -9.0090084121        5.5881898168        8.8211323432
 H        -9.0633553567        7.2554856623        8.4762323950
 H        -7.5596791231        2.4569639757        5.9874266270
 H        -8.5161024600        3.0710909020        4.7676792954
 H        -5.0060029785       -0.0131395406        2.1355022262
 H        -6.0857458844       -1.0031061850        1.2863680603
 H        -6.9291054638       -0.2766336340        5.4555976461
 H        -5.5688098983       -0.2961388759        4.2588222562
 H        -6.9600124330       -1.4232270630        4.1517332214
 H        -8.9996464556       -0.4849722385        4.0032570836
 H        -9.1199422776        1.0942870160        4.8189589173
 H        -9.3509784569        1.0153545837        3.0432456174
 H        -4.9646154251        1.8011665425        0.4262531200
 H        -6.1938907100        1.1403805537       -0.4097580910
 H        -3.3511381802       -1.3971252845       -3.1230081786
 H        -1.6343178990       -1.2506557829       -3.4936821813
 H        -3.3891914489        0.6659766083       -3.5071322026
 H        -3.6560905804        2.2177968854       -2.6846217256
 H        -4.9354922020        0.9356557598       -2.6625263207
 H        -2.0251923948        1.4004127063        0.3813198755
 H        -1.9346110275        2.2723946806       -1.2670285870
 H        -3.3411536074        2.5043244183       -0.2578662456
 H        -2.1179371899       -2.8814018840       -0.9818621719
 H        -3.2840575884       -3.5643779218       -2.1386168204
 H         2.0583455756       -5.9158284043       -0.9504331736
 H         1.7110291926       -4.2687741072       -1.4541035266
 H        -2.1118276688       -6.8933608981       -1.1910542250
 H        -2.7709030173       -5.8059609583       -2.5009958826
 H        -2.7552461647       -5.2661247359       -0.8229149635
 H        -0.9026883116       -5.6533817860       -3.9747079544
 H         0.6925404972       -5.7657632158       -3.2675272668
 H        -0.3947319593       -7.0615505789       -3.0227398452
 H         2.8830565456       -4.2803406962        0.5217781995
 H         1.3547811675       -4.8970068373        1.4484655025
 H         4.4969178755       -0.8606138388        2.1078812639
 H         4.5245201522       -2.6511991442        1.7833483542
 H         0.5292102962       -0.3569815105        0.5593792325
 H         1.9226769149        0.4036588044        1.0816351473
 H         0.6409401019       -0.1231342650        2.2606432234
 H         2.9523525819       -1.7385456381        3.3726932005
 H         1.2587842374       -1.9253797115        3.4356762831
 H         2.3473817931       -3.3401032748        2.9974787126
 H         5.4179781308       -0.8645000662       -0.5141136927
 H         6.5167013289       -0.7293918076        0.9722608299
 H         6.5215137706       -4.0424080741       -3.3338607151
 H         5.1242294809       -3.4297360797       -2.2796790262
 H         8.0617323143       -0.0028452814       -0.7961768549
 H         9.3843668211       -0.9765178279       -1.2943508984
 H         8.8150713114       -1.2311200698        0.3088899855
 H         9.3000115262       -3.1990812607       -2.0563876258
 H         9.0387018028       -3.7229522031       -0.4922110886
 H         7.9793548546       -4.3830571579       -1.6938253956
 H         5.0560713879       -3.8989738061       -4.9402066297
 H         5.8959420955       -2.3320891124       -5.1572426414
 H         3.8734362052        1.5340860120       -4.2769132011
 H         2.7895140018        1.9601774790       -5.6622429497
 H         5.4079890431        0.2119558020       -5.1014011642
 H         4.4459356116        0.5851368560       -6.5791997249
 H         5.6152674877       -0.7650066991       -6.5463864189
 H         2.4918911310       -0.9934876978       -7.2359256424
 H         3.6504962890       -2.3937420771       -7.2102965201
 H         2.3065425070       -2.4126191487       -6.4193457365
 H         1.9100360923        3.2857817098       -3.8620511567
 H         0.9332641992        1.8913737791       -3.8437362157
 H         1.7309673620        4.9436308218        0.4942645633
 H         0.5425903533        5.1533725996       -0.6955629659
 H         0.9446190229        3.4906933499       -0.1045414243
 H         4.9326863384        3.4316993727       -0.2026474691
 H         4.2568885115        1.8268908112       -0.2172545413
 H         3.3622153826        3.2095273411        0.6383911039
 H         4.2375321049        4.4254616984       -3.1717020749
 H         5.3863976342        3.7821046370       -1.9805374563
 H         4.7828425006        2.6473949856       -3.1399776113
 Na        1.1741666314       -1.4575830853       -2.2613719144
