155

 C        -9.7173971463        6.6138064704        5.4898796473
 C        -8.2823446558        6.9933527116        5.9619447765
 C        -7.7443682306        6.2527672713        7.2536279424
 C        -8.0776866214        4.7062295601        6.8297625593
 C        -7.2093850923        4.0988635325        5.7017325746
 C        -6.2151634950        6.4305780879        7.2029994671
 C        -8.5161152412        6.5783611856        8.6234379731
 O        -7.5870457277        7.7571384255        5.3389060359
 O        -8.8745708001        4.0291976191        7.4776280662
 C        -7.7997033484        2.8860270703        5.0419229211
 C        -6.9788029268        2.3558515388        3.8527698329
 C        -7.5898732042        0.9983799065        3.1980080573
 C        -7.0845537678        0.7855085579        1.6166642201
 C        -5.5451577734        0.8850060968        1.3103098481
 O        -5.9309408074        2.8143770829        3.5104251502
 O        -7.8783375920        0.6718405715        0.7524157677
 C        -6.9270341825       -0.2071065617        4.0351736787
 C        -9.0608853582        0.8273959938        3.2358450355
 C        -5.2726938577        0.4035980718       -0.1932325224
 C        -3.9602468110       -0.2540703055       -0.4598536839
 C        -2.9162918116        0.5081802999       -1.4934028268
 C        -1.6625360518       -0.3645660881       -1.8990599427
 C        -1.9644921361       -1.5656723308       -2.7963079120
 C        -3.8310204378        0.9182297725       -2.7105958209
 C        -2.4285580641        1.6565920485       -0.6268767500
 O        -3.6134872310       -1.2975546329        0.0207537752
 O        -0.5247175715       -0.0786199386       -1.5365391107
 C        -1.9525699794       -2.9344593644       -2.0282089558
 C        -0.5554670862       -3.7011723025       -2.1397993113
 C        -0.5963549912       -5.3807131985       -2.0315757854
 C        -0.2393092892       -5.6824950599       -0.5732225631
 C         1.3965905518       -5.5480436001       -0.1023439247
 O         0.4481329831       -3.1763630592       -2.5072460767
 O        -1.0498051840       -5.8982695496        0.2726041679
 C        -2.0130252934       -6.0324473704       -2.3367184352
 C         0.4272508396       -5.8501220617       -3.0394111733
 C         1.5346556930       -4.6739752340        1.1470669306
 C         1.0742265407       -3.2139211754        1.0553034164
 C         1.9013147041       -1.8485030776        1.5146031499
 C         3.1164067260       -1.6149412927        0.5609851470
 C         4.4849740541       -1.2785677123        1.2249099020
 C         0.9510945248       -0.6489243161        1.4770357445
 C         2.3659026446       -1.9263467119        3.0177856859
 O        -0.0286476552       -3.0820700050        0.4861052024
 O         2.9464462111       -1.7152473781       -0.6806554844
 C         5.5882021945       -1.0575577409        0.2302085049
 C         6.4036766083       -2.2957136789       -0.1274299080
 C         7.4503584590       -2.1923401154       -1.3014492164
 C         6.7788799502       -1.8618551262       -2.6783085195
 C         6.5403298219       -3.0655456163       -3.5726193836
 O         6.3739910492       -3.2830329701        0.5010610933
 O         6.5062614112       -0.7184023676       -3.0131848073
 C         8.4355298416       -0.9991789856       -0.9113575269
 C         8.0966053990       -3.5827408186       -1.4095381411
 C         5.7530435269       -2.6771317093       -4.8543477342
 C         4.4498343068       -1.8636024490       -4.4119476169
 C         3.9407917659       -0.8497692457       -5.5301294632
 C         2.8117561829        0.1375719002       -4.8964272973
 C         3.1910032803        1.5332524399       -4.4057544483
 C         5.1713891706        0.0105179994       -6.0459460410
 C         3.3038063224       -1.6935237427       -6.6511020838
 O         3.8590809826       -2.0053018046       -3.3881209997
 O         1.7084367212       -0.2536360916       -4.6356050538
 C         2.1055406001        2.3039507836       -3.6236587009
 C         2.4414232960        1.9401867145       -2.1401259997
 C         3.0242585911        3.0607289497       -1.2333611649
 C         1.9100203627        4.1712814984       -1.1796175899
 C         0.6287551642        4.0055465578       -0.3160648472
 O         2.2550328935        0.8682632914       -1.6480581162
 O         2.2134570931        5.2076164720       -1.7217060829
 C         3.3675808498        2.3952723937        0.0856925820
 C         4.3466228289        3.6157981240       -1.9174473300
 H        -9.5039637604        6.0250179422        4.5173780764
 H       -10.2157007527        6.0492473883        6.2240090337
 H       -10.3222255779        7.4387448780        5.1030702054
 H        -6.9512049841        4.8481738898        4.9992332565
 H        -6.1483418818        3.9177657114        6.1361115216
 H        -5.9421757405        7.4169695451        7.4200423567
 H        -5.8613223272        6.2593302118        6.2243509447
 H        -5.6253467027        5.8038663810        7.9019933310
 H        -9.6071992442        6.6464214488        8.4803792185
 H        -8.3214341236        5.7177756835        9.3069207554
 H        -8.1733801565        7.4703591519        9.1929889723
 H        -7.8724928092        2.1226597583        5.8426553397
 H        -8.8321311479        3.2004545812        4.8296773340
 H        -5.3328528513        1.8963064340        1.3737099370
 H        -4.9981873707        0.2862200562        2.0286931279
 H        -7.0128090929        0.0986837148        5.0179368927
 H        -5.8232077561       -0.2365832738        3.8841043906
 H        -7.4356849708       -1.1523134953        3.8121609330
 H        -9.3374582478        0.0202604902        2.5467696332
 H        -9.5126733191        0.6202663941        4.2578497336
 H        -9.5451895938        1.6750478605        2.8161711360
 H        -5.6193794939        1.2294778382       -0.8783406119
 H        -6.0463922709       -0.3746784193       -0.4388329562
 H        -3.0237115877       -1.3045603385       -3.2090629661
 H        -1.3686313975       -1.6218988745       -3.6932608543
 H        -4.2567444416        0.0560307910       -3.2750582986
 H        -3.0752684872        1.4614575387       -3.3131963046
 H        -4.4821671841        1.6506712937       -2.4088918830
 H        -1.9241643006        1.2270424217        0.1895697564
 H        -1.6085503220        2.1453314279       -1.1205688257
 H        -3.2974041751        2.2432264025       -0.3366682841
 H        -2.3189681577       -2.8190377736       -1.0275806225
 H        -2.6790372271       -3.5994202237       -2.5143435388
 H         1.5391672081       -6.6696199546        0.0936681822
 H         2.1139844971       -5.3506464084       -0.8740766742
 H        -2.0178848752       -7.1336863431       -2.5117888044
 H        -2.2903490365       -5.6071623956       -3.3162294383
 H        -2.6555448234       -5.6433970560       -1.5025091822
 H         0.5336709634       -5.0054314863       -3.7878019620
 H         1.4148651495       -6.0561294076       -2.6658117717
 H         0.0567792920       -6.6491583397       -3.7126328923
 H         2.5705754529       -4.7442501233        1.5413537297
 H         0.9759269852       -5.1255097780        1.8727535104
 H         4.2933457644       -0.4450275214        1.8718222792
 H         4.6720218431       -2.1413233148        1.9015408869
 H         1.3762554633        0.2092049754        1.0292131645
 H         0.4569441823       -0.3725688107        2.4026411594
 H         0.0697808373       -0.8322779382        0.8962855876
 H         2.5469383059       -0.8747205713        3.3863793475
 H         1.5627214113       -2.3946381085        3.5662977395
 H         3.2080577544       -2.5675682853        3.2895244025
 H         5.1043479104       -0.6454766343       -0.7819001098
 H         6.3297728010       -0.3927072774        0.6034773250
 H         7.4647043901       -3.5075403787       -3.8492363204
 H         6.0561117829       -3.8766687977       -3.0613784928
 H         8.0510255998       -0.0379955551       -1.2802802100
 H         9.4817285914       -1.1193939458       -1.2100094153
 H         8.4066389405       -0.8834698540        0.1567758249
 H         8.9329059341       -3.6798778585       -2.0468252587
 H         8.4563655444       -3.7322310315       -0.3299271398
 H         7.3312715948       -4.3971325582       -1.6690714321
 H         5.2594515341       -3.6487019980       -5.1051149148
 H         6.2688149282       -2.3423923654       -5.7511668670
 H         4.1982173268        1.3971388965       -3.8880146375
 H         3.4557195255        2.0754654191       -5.2662851987
 H         5.8366638535        0.4546883451       -5.3556041948
 H         4.8196484620        0.8886569294       -6.5528788764
 H         5.7936925808       -0.4225357492       -6.8574861670
 H         2.4115255215       -1.3087850002       -7.0893091391
 H         3.7450297852       -2.0222416708       -7.5067697648
 H         2.7853133068       -2.6045777436       -6.1327863500
 H         2.0669869301        3.3990482487       -3.8737061769
 H         1.1448701039        1.7924478100       -3.9729979066
 H         0.7381695758        3.7680065392        0.7745352856
 H        -0.0463645943        4.8710953855       -0.5344548148
 H         0.1341771826        3.1188180432       -0.6685758451
 H         4.3325570299        2.6745837730        0.4450020728
 H         3.4164705447        1.2947042833       -0.0349080546
 H         2.7408424590        2.6149639657        0.8648239211
 H         4.1352803918        4.2148844330       -2.7534826588
 H         4.9065826471        4.2016297938       -1.2322190841
 H         4.9922938646        2.7799840469       -2.3311343501
 Na        1.5531089137       -1.2084759336       -2.4324339222
