155

 C       -10.1975322665        6.5822212099        6.8731943422
 C        -9.1985485777        6.1524598725        5.8476975377
 C        -7.7340006169        5.5496746295        6.3792706247
 C        -7.7522153099        4.1310076137        5.6809244220
 C        -7.6613624284        3.9457392690        4.0960312662
 C        -6.5910399007        6.3897097853        5.7838199958
 C        -7.7320537480        5.4992473305        7.8666178623
 O        -9.3668408715        6.3164492033        4.6840530877
 O        -8.1605933851        3.1654863449        6.3264046880
 C        -8.3997139884        2.7096306951        3.6718928522
 C        -7.4577473979        1.6857503057        2.9985837596
 C        -7.9656221350        0.4135943994        2.1354383407
 C        -7.3517357559        0.3716091191        0.6734001206
 C        -5.7699473843        0.4692278314        0.5401360427
 O        -6.3034864271        1.7466481938        3.2871650502
 O        -7.9539112468        0.1129984096       -0.3185455358
 C        -7.6146513542       -0.8387179170        2.9411110227
 C        -9.5818554958        0.4673795113        1.9760113352
 C        -5.2291682858        0.5682586385       -0.9001961400
 C        -3.8426128871       -0.0438096513       -1.1668482343
 C        -2.7159897975        0.7774180758       -1.8888853059
 C        -1.5321593510       -0.1760343129       -1.9642300763
 C        -1.5860859965       -1.4495282451       -2.7895689027
 C        -2.9409879108        1.2329288382       -3.4333456018
 C        -2.3622205135        2.1124640051       -1.1390849037
 O        -3.5646375077       -1.1253980773       -0.6892559971
 O        -0.5071390110        0.1180980360       -1.3273035336
 C        -1.5275035600       -2.7452265074       -1.8630907917
 C        -0.2099035308       -3.6401446252       -2.0141068404
 C        -0.2036826928       -5.2296295495       -1.7498121498
 C         0.6640857190       -5.5932966478       -0.4334175963
 C         2.1071195251       -4.9876958340       -0.3719929098
 O         0.8654649326       -3.1943077329       -2.3444456297
 O         0.1666977777       -6.2526941184        0.4411076027
 C        -1.5985151841       -5.8403436722       -1.5396308060
 C         0.6400387123       -5.9015879790       -2.8628452653
 C         2.1063471900       -4.4432059067        1.1086738773
 C         1.3290333111       -3.1382635290        1.1934183902
 C         1.9267135036       -1.9282833958        2.0067388974
 C         3.2563015120       -1.5925810630        1.2289340520
 C         4.5830249655       -1.7969539788        1.9512133668
 C         0.9682627823       -0.6825027880        1.6936773429
 C         2.1533557598       -2.1633792495        3.5393298890
 O         0.3626817135       -2.9201618782        0.4307630598
 O         3.1862873673       -1.1926124662        0.0589962012
 C         5.7004643542       -1.2828350112        0.9959519608
 C         6.1136791838       -2.2128628813       -0.1096971856
 C         7.0768721477       -1.5779189155       -1.2003352103
 C         6.3264672221       -1.5417837208       -2.5939362326
 C         5.8720671032       -2.8798205767       -3.2558449358
 O         5.7994007476       -3.3797797766       -0.1792825634
 O         6.0544003602       -0.4955744337       -3.1644029063
 C         7.6032866911       -0.1942792877       -0.8434736870
 C         8.3219866929       -2.5368278183       -1.3518206743
 C         5.1734798574       -2.4624971773       -4.5466938318
 C         3.9832709151       -1.5724141642       -4.1724929721
 C         3.3983173765       -0.6143613880       -5.2453804612
 C         2.6113105247        0.5592394959       -4.3052574612
 C         3.5180187348        1.6201408512       -3.7733050323
 C         4.4753750717        0.0429874156       -6.1106260841
 C         2.5500930277       -1.4786843470       -6.1195319436
 O         3.3649870534       -1.8138514041       -3.1246948915
 O         1.4334291355        0.3784429770       -4.1457769206
 C         2.8016685713        2.6065552609       -2.7863673850
 C         2.9146835466        2.2133462268       -1.3193916526
 C         3.4609250930        3.2424210688       -0.1674274336
 C         2.3517048691        4.3638750287       -0.2620693703
 C         1.5621628390        4.7982648769        0.9705406145
 O         2.7001829614        1.1153859571       -0.8594011057
 O         2.2128272058        4.8517752900       -1.3804058697
 C         3.5034213417        2.4963365962        1.1342142492
 C         4.9492980246        3.6949229649       -0.4399854759
 H       -10.4420981563        5.7102255773        7.5286311472
 H        -9.9401445519        7.3987489965        7.5995392565
 H       -11.1694653333        6.7428459863        6.3973705585
 H        -8.1018717730        4.8614604960        3.7221221006
 H        -6.6960757972        3.9360381572        3.7271668105
 H        -6.0586769559        6.9473123788        6.5845920559
 H        -6.9636945711        7.1676873715        5.0864952935
 H        -6.0243335763        5.6966073632        5.2283449504
 H        -8.3817243110        4.6968553853        8.1740244600
 H        -6.7309023647        5.3597158488        8.2351854501
 H        -8.0586798135        6.4306340236        8.2606270351
 H        -8.6247217289        2.1639637658        4.6606188127
 H        -9.3403081634        2.9031807470        3.0976639544
 H        -5.3477132486        1.2750852054        1.1113115220
 H        -5.5145105696       -0.4990311177        0.8628946528
 H        -8.0321741781       -0.9631873697        3.9850876096
 H        -6.5571810374       -0.9714211263        2.9495419735
 H        -8.0231392036       -1.6777137239        2.4057135570
 H       -10.0927508814       -0.4583461038        2.2597430524
 H       -10.1367970350        1.1452710875        2.5572928120
 H        -9.8053654512        0.5352253540        0.8783372074
 H        -5.1787457950        1.6517009964       -1.2295871487
 H        -5.9070242739        0.2478410924       -1.6861592839
 H        -2.4575736291       -1.4724642925       -3.3557143357
 H        -0.7480186245       -1.3753208295       -3.5275688620
 H        -3.5869475640        0.5196379590       -4.0219329339
 H        -2.0641905659        1.4873625373       -3.9776632372
 H        -3.5762160091        2.0492425392       -3.5225757201
 H        -1.4971031944        2.6414536740       -1.6203601969
 H        -3.1468571980        2.8692959425       -1.1262487528
 H        -1.8913481985        1.8069117171       -0.1244287687
 H        -1.6152534963       -2.3535725424       -0.8906354088
 H        -2.4295971145       -3.3966766733       -1.9301324600
 H         2.8114628394       -5.8169073840       -0.4660986167
 H         2.4125809841       -4.2583259739       -1.1467573866
 H        -1.6143796412       -6.8892740735       -1.4752123220
 H        -2.2993972823       -5.7048445976       -2.3381777043
 H        -2.0817540443       -5.4010147193       -0.6876952405
 H         1.7290475202       -5.8992927244       -2.4277551814
 H         0.3242712989       -6.8879165822       -3.1924954947
 H         0.6169384450       -5.1581962067       -3.6233861049
 H         3.0769543444       -4.2321320795        1.4459083961
 H         1.7684068207       -5.3286769924        1.6386745264
 H         4.6430179328       -1.2920377198        2.9197687068
 H         4.7974776753       -2.8814550130        1.9822775990
 H        -0.0395868999       -0.8722600162        2.0868001869
 H         1.0122476538       -0.5548704487        0.6358463840
 H         1.2422293719        0.2625010289        2.1982667157
 H         2.5530379015       -1.2780694594        3.9464008757
 H         1.1517442149       -2.2662572309        3.9787242121
 H         2.7947820943       -3.0414565992        3.7778583969
 H         5.4062447681       -0.3974228262        0.6165431184
 H         6.5958483637       -1.0463196776        1.5253281655
 H         6.7442560840       -3.4941872872       -3.6031142128
 H         5.2197534038       -3.2928576338       -2.5200169471
 H         6.8463608216        0.4674596109       -0.4002709259
 H         7.9160047767        0.3122350237       -1.7214400640
 H         8.4901797760       -0.3922988367       -0.1988946667
 H         8.7955012627       -2.2796361841       -2.3222405126
 H         9.1121956967       -2.3948377734       -0.6061845292
 H         7.9473229263       -3.5796771885       -1.3459404179
 H         5.0170030165       -3.2857206516       -5.2223319997
 H         5.9625009160       -1.9246478541       -5.0911686180
 H         4.3698888497        1.1444944674       -3.3389400516
 H         3.9032808434        2.1518012156       -4.6164221462
 H         5.1730998840        0.6984565127       -5.5989632803
 H         4.0425766059        0.7211241872       -6.8843617531
 H         4.9697254707       -0.7678888055       -6.6775097555
 H         1.9166521234       -0.9798154700       -6.8188165515
 H         3.0047987948       -2.2602587102       -6.6163344596
 H         1.8984685178       -2.0301797713       -5.3712595270
 H         3.2173078631        3.6211538849       -3.0644576359
 H         1.6908394997        2.7078665291       -3.1079194238
 H         2.1437717800        5.1649758251        1.7689493425
 H         0.8097447609        5.6082076021        0.8061754899
 H         1.0426642075        3.9236675435        1.4380035542
 H         3.9445560289        3.1343367686        1.8388291796
 H         4.1220316711        1.6281439753        1.0756614407
 H         2.4965217263        2.2347899945        1.4489439190
 H         5.2808728734        4.0001570734       -1.4575564271
 H         5.4181473745        4.4017310526        0.2831308938
 H         5.5067799464        2.8110901610       -0.2584894135
 Na        1.6015763245       -0.9073610191       -1.8384560027
