155

 C       -10.8414114291        4.2822399080        6.3029110756
 C        -9.6308504928        4.7927622752        5.5536881809
 C        -8.6886175755        3.6921710043        4.7632063227
 C        -9.5316498093        2.9906266456        3.6919688171
 C        -8.9992711114        3.0852280038        2.2218745423
 C        -7.4727482369        4.6163741770        4.2448363148
 C        -8.3082889413        2.7847687316        5.9490086640
 O        -9.3383305261        5.9523957134        5.6226278354
 O       -10.5707605217        2.4031670181        3.8421169841
 C        -9.3736675449        1.9028908516        1.3394510969
 C        -8.5934214672        0.6479795947        1.7988563271
 C        -8.0073302237       -0.4750473445        0.7761841812
 C        -7.0710981758        0.1179243792       -0.2801974904
 C        -6.0519658087        1.0852542489        0.2661792440
 O        -8.4380505957        0.5046247837        3.0047644270
 O        -7.2007389635        0.0158683570       -1.4990380611
 C        -7.2691262041       -1.5756644685        1.5753071538
 C        -9.2891675729       -1.0966867238        0.1826784721
 C        -4.9410306727        1.5121574722       -0.8321904176
 C        -3.7870800214        0.4277609430       -0.8847610971
 C        -2.2402325475        0.9670523867       -1.2831754479
 C        -1.0639846305        0.0269882806       -1.7370377766
 C        -1.3773079027       -1.0345862649       -2.8651256155
 C        -2.3484067177        2.1517002602       -2.3589746799
 C        -1.7435498681        1.6398591622        0.0184285219
 O        -3.9632336346       -0.6088994838       -0.3276720943
 O         0.0739894532        0.1083773062       -1.2921541269
 C        -1.5956425297       -2.4901995210       -2.2162603986
 C        -0.3249378491       -3.3199361966       -2.0700437448
 C        -0.5249386892       -4.8489513443       -1.9230571145
 C        -0.1012822079       -5.2015355281       -0.3486779989
 C         1.3339718182       -5.1691878467       -0.0465033034
 O         0.8102452334       -2.8439337873       -2.0917772420
 O        -0.9677168595       -5.5989590413        0.4109183727
 C        -1.9571101048       -5.3934775646       -2.1353571249
 C         0.4601761253       -5.4768724950       -2.9387070051
 C         1.6254537464       -4.5475357512        1.2918501627
 C         1.4874727081       -2.9743481190        1.2740516178
 C         2.3329336039       -2.2250173160        2.4418726428
 C         3.7190138217       -1.7655828217        1.7434720731
 C         4.9883201955       -2.1043717312        2.4838115254
 C         1.6833946290       -0.9082937536        2.8821574011
 C         2.4669524661       -3.1381048029        3.6720284296
 O         0.8174706917       -2.3246366133        0.4629956961
 O         3.7137145362       -1.2862306242        0.6721342535
 C         6.1983486971       -1.3091026954        1.9269647576
 C         6.4647566081       -1.4196199412        0.4550969546
 C         7.4090342849       -0.4183309579       -0.3680734869
 C         6.9248410201       -0.3292129182       -1.9387668036
 C         6.9920809328       -1.5898818892       -2.8804800530
 O         5.9937571337       -2.3667078622       -0.1778639893
 O         6.3866543179        0.7267674852       -2.2266104000
 C         7.4856964983        1.1216277338        0.0783278216
 C         8.8361950777       -1.0330344782       -0.3217300294
 C         6.0780759672       -1.1432332397       -4.1760458896
 C         4.7208472275       -0.9378251225       -3.6560912918
 C         3.5607725201       -0.4537468194       -4.6420466989
 C         2.7003995734        0.5958963690       -3.8083044014
 C         3.3383637843        1.8673662719       -3.2658327353
 C         4.1039572201        0.3146118208       -5.9524657328
 C         2.6666639491       -1.6271239241       -5.0755474447
 O         4.3519204282       -1.2394476406       -2.5640868440
 O         1.5918149852        0.2973897298       -3.4230212730
 C         2.5009628942        2.4703278530       -2.1658301325
 C         3.1139906125        2.2672664583       -0.6983255236
 C         3.8337229324        3.4826570559       -0.0285474114
 C         2.6982680006        4.6262796688        0.1097292623
 C         3.0108104720        6.0301710277        0.5257878656
 O         2.9138348467        1.2233440562       -0.1477791115
 O         1.6185273780        4.3434342618       -0.3420856874
 C         4.4240097073        3.0954445198        1.3925785534
 C         4.9315311389        3.9239039476       -1.0273628785
 H       -11.4475553866        3.6542311692        5.5536215639
 H       -10.6791219724        3.5696107116        7.1285809303
 H       -11.3316975403        5.1216757678        6.6977400579
 H        -9.3687175121        3.9280207432        1.6676098261
 H        -7.8862451079        3.0784740774        2.3271340168
 H        -6.6938981081        4.5236972415        4.9707156088
 H        -7.7647998056        5.6683909400        4.0955109253
 H        -7.1551462897        4.3867438860        3.1664290655
 H        -9.1451792905        2.1231193617        6.2458073909
 H        -7.4832521017        2.1371053169        5.7342790969
 H        -7.9478343155        3.5149079144        6.7247035556
 H       -10.4631863556        1.6427005796        1.6628537725
 H        -9.4637571810        2.0411342112        0.2294126820
 H        -6.6486534459        2.0135871814        0.4595684825
 H        -5.5889939762        0.8757432366        1.2539294603
 H        -7.9497974780       -2.0634467042        2.3185073371
 H        -6.4219768859       -1.2668314676        2.1451205424
 H        -6.9954837777       -2.3551294456        0.9244012630
 H        -9.6432886965       -0.3772506850       -0.5752560367
 H        -9.2487943618       -2.0311836366       -0.3949618116
 H       -10.1434382756       -1.2785305585        0.9029308677
 H        -4.4096624133        2.4046416449       -0.6752514458
 H        -5.4072603026        1.4434283364       -1.7948155250
 H        -2.2788577398       -0.7895123628       -3.3833324146
 H        -0.4624980929       -1.0308724054       -3.5418300013
 H        -2.7582709295        1.6186333125       -3.1609083315
 H        -1.3351875381        2.5878253288       -2.5483813204
 H        -2.9685623796        3.0463287350       -2.0964022444
 H        -1.1543233691        2.5100602520       -0.2011121053
 H        -2.4856996876        2.0265505483        0.6578601542
 H        -1.1016999172        0.9598540746        0.5695402645
 H        -1.9794049522       -2.4712402665       -1.2318351211
 H        -2.4102397930       -3.0005655696       -2.8727172439
 H         1.8498798391       -6.1656350656       -0.0450728667
 H         1.7552464320       -4.4838751309       -0.7627337528
 H        -1.8791362447       -6.4316698507       -1.9692360503
 H        -2.1257588467       -5.2140578001       -3.1752033034
 H        -2.6878821128       -5.0068614056       -1.4350070131
 H         0.4492883483       -4.8382652677       -3.8096176955
 H         1.5432963284       -5.6369182506       -2.7678764292
 H         0.0482063522       -6.3730342434       -3.2093169167
 H         2.5924128660       -4.7677133270        1.7030181186
 H         0.8813707393       -4.7979747415        2.1140500241
 H         4.7514780109       -1.7596347285        3.5394287779
 H         5.1671577584       -3.1629506194        2.5262405232
 H         0.9258554142       -1.1436398434        3.5503267820
 H         1.3579531516       -0.4390434716        1.9332636684
 H         2.4945212384       -0.3205028448        3.4117536911
 H         2.5748620253       -2.6706361321        4.6303398919
 H         1.5890995333       -3.8061039602        3.6635070714
 H         3.3556159992       -3.7828779649        3.6090868480
 H         6.0082633354       -0.1670224941        2.0294927387
 H         7.2066138874       -1.5493436873        2.3524818300
 H         8.0780997508       -1.6398744654       -3.1754658273
 H         6.5404186155       -2.5436569387       -2.4786418594
 H         8.2350435462        1.6475801678       -0.5332297106
 H         7.8571159769        1.0955476328        1.0641565607
 H         6.4679658495        1.5776516027        0.0985370636
 H         9.5037582314       -0.6788895452       -1.0405603947
 H         9.1534782180       -1.0862694776        0.7359269786
 H         8.6721816387       -2.1485329374       -0.3932579746
 H         5.9659009022       -1.6533345527       -5.1381564556
 H         6.3892199778       -0.0861849357       -4.4776130827
 H         4.3728264361        1.6190604977       -2.9344031166
 H         3.5050572504        2.6178880548       -4.1303787482
 H         4.7852615105        0.9684088045       -5.5630617819
 H         3.1931778725        0.6749116733       -6.5277383866
 H         4.6967731535       -0.4295125629       -6.5008057831
 H         1.6500120859       -1.1564248145       -5.2664170564
 H         2.8941471386       -1.9208967069       -6.1457142900
 H         2.6973343864       -2.4725067446       -4.4051844454
 H         2.4411419381        3.5406419059       -2.2478046234
 H         1.5650022952        2.0114470041       -2.2337986735
 H         4.0543862450        6.3200659189        0.4696512506
 H         2.3908615199        6.7045836640       -0.0717540090
 H         2.7979320817        6.1371962818        1.5929513269
 H         4.4337170597        2.0525338370        1.6150573325
 H         3.7130624178        3.5357374850        2.1962133852
 H         5.3871756937        3.5966154111        1.5373144872
 H         4.5403291911        4.4104287858       -1.9527914351
 H         5.5372672993        4.6901492220       -0.4957108066
 H         5.5547888620        3.1270380633       -1.2176282694
 Na        2.1418623323       -1.0957268346       -1.1834507131
