155

 C       -11.0624808691        4.0868959059        6.0970928453
 C        -9.8159589869        4.6061766230        5.5120379680
 C        -8.9129509056        3.5331356305        4.6846134573
 C        -9.7081044499        3.0354391480        3.5058446118
 C        -9.2798670004        3.1348137031        2.0372867478
 C        -7.6428438509        4.2578513844        4.3970232573
 C        -8.6489184240        2.2111313945        5.5569245954
 O        -9.5073500820        5.7536508709        5.4899277095
 O       -10.7133240383        2.4049550533        3.7549879257
 C        -9.4841971423        1.7827565076        1.3274311782
 C        -8.5422559536        0.6311738723        1.7054828891
 C        -8.1526576213       -0.4320205184        0.7055301148
 C        -7.0612727801        0.2789062943       -0.2327642430
 C        -5.7179343398        0.7380371257        0.4112306576
 O        -7.9858777730        0.6600893897        2.7806815977
 O        -7.2237588019        0.3300323762       -1.4728466518
 C        -7.4265520303       -1.6926062008        1.2682352294
 C        -9.3939392926       -0.9226869861       -0.1040452819
 C        -4.6609393405        1.0626560607       -0.6752935926
 C        -3.3393301304        0.2881560677       -0.5520262457
 C        -2.0164349340        1.0954788818       -0.8321493077
 C        -0.9361908200        0.1072691328       -1.4918411125
 C        -1.4971175390       -0.8780157173       -2.5584658445
 C        -2.1528442408        2.2060295115       -1.9459016519
 C        -1.5438751760        1.8078541450        0.4407066454
 O        -3.2544054839       -0.8604102282       -0.1672667394
 O         0.0742036630        0.0186958401       -0.8295290789
 C        -1.6444288090       -2.3779030619       -2.1256969375
 C        -0.3480045887       -3.1546737447       -2.1550521100
 C        -0.4395749052       -4.7861155663       -1.9602900196
 C        -0.0903803464       -5.0748575123       -0.4695573868
 C         1.3724899752       -5.0063734521       -0.0355094888
 O         0.6921967488       -2.6445629658       -2.3985190660
 O        -0.8751576258       -5.5719995807        0.2728431264
 C        -1.9060674128       -5.3440575098       -2.2648333482
 C         0.4992051454       -5.5593401081       -2.8795473855
 C         1.4732251142       -4.5888744925        1.4026783926
 C         1.4422046673       -3.0071741143        1.3736824352
 C         2.2020531437       -2.0436189222        2.4527305957
 C         3.5621671623       -1.7185203620        1.7712531669
 C         4.8426472013       -2.0861744009        2.4327029677
 C         1.4274312359       -0.6423630217        2.5435219247
 C         2.3086069386       -2.6269087534        3.9033257988
 O         1.2532038139       -2.4592756276        0.3086640486
 O         3.4835975702       -1.1829006325        0.6882601704
 C         5.9605927297       -1.1156490045        1.8933172249
 C         6.4764654787       -1.3287514335        0.4510974132
 C         7.3798733051       -0.2404015493       -0.3481078727
 C         6.8382144424       -0.0686268360       -1.8341877343
 C         7.0249559623       -1.2366839624       -2.6738545111
 O         6.3617452421       -2.4496493845       -0.0405938886
 O         6.4429198442        1.0336925327       -2.1479601999
 C         7.4686583381        1.0875920712        0.3951781854
 C         8.7902085401       -0.9481834456       -0.3461681455
 C         6.0846835602       -1.2632228710       -3.9068323519
 C         4.6304581182       -1.1704298972       -3.5846734251
 C         3.6233500001       -0.6657129500       -4.7101091402
 C         2.7137290416        0.4860797061       -3.9697246680
 C         3.4627441326        1.7284916587       -3.4693624639
 C         4.3448763297        0.1172646973       -5.8999823991
 C         2.8053576844       -1.8627228990       -5.2793074116
 O         4.1330814247       -1.5050501061       -2.5271595304
 O         1.5248205653        0.4676951219       -3.8817183178
 C         2.6407664654        2.5195863593       -2.4003128685
 C         3.1891579710        2.2701912882       -0.9562700742
 C         3.7090880895        3.4512765129       -0.0267232520
 C         2.5829279362        4.5785665715        0.1908478819
 C         3.0395800479        5.8332207639        0.9567563729
 O         3.3337564919        1.0935322258       -0.5793996579
 O         1.4699893424        4.3178878550       -0.2128801156
 C         4.0394494389        2.9409651111        1.3512232562
 C         4.9287192948        4.0521677956       -0.7336190947
 H       -11.2494041716        3.0715025744        5.7706304187
 H       -11.0337193377        4.0051030681        7.2645129122
 H       -11.8814866209        4.7629460071        5.7427763079
 H        -9.8710773676        3.8699343620        1.5706358042
 H        -8.2180216318        3.2499481704        1.9144687963
 H        -7.7707235087        5.3403598927        4.6037244348
 H        -7.4886825659        4.3768015987        3.2767273786
 H        -6.7315248527        3.7947582909        4.9267884142
 H        -9.5697447800        1.7722619365        5.8934137607
 H        -8.0785629080        1.5163569049        4.9748470549
 H        -8.0198896534        2.4743815866        6.3997826099
 H       -10.3926129605        1.3386020755        1.6072955509
 H        -9.6576245198        1.8080948928        0.2049303559
 H        -5.7957187988        1.6507162487        1.0429919735
 H        -5.4256016212        0.0667543413        1.2491403589
 H        -8.2056529974       -2.2874387338        1.8455162270
 H        -6.6440254807       -1.5658891684        1.9711534670
 H        -7.0669004878       -2.3016749587        0.4525220574
 H       -10.0707818260       -0.1431182933       -0.3581113901
 H        -9.2413204965       -1.4641848428       -1.0008737669
 H        -9.9756845161       -1.5909022587        0.5090701390
 H        -4.3557047328        2.0686376837       -0.6435673005
 H        -5.0822198378        0.8275497062       -1.5874487883
 H        -2.4382142366       -0.4405532645       -2.8016822885
 H        -0.7881918800       -0.8856800849       -3.4908060261
 H        -2.5355015842        1.8163675260       -2.8159809566
 H        -1.2432764878        2.7707299444       -2.2182109178
 H        -2.9185268625        2.9381861708       -1.4774997855
 H        -0.4633284010        1.8274280527        0.5217946851
 H        -1.8298585855        2.8386582234        0.2941221637
 H        -1.9688957400        1.5417771249        1.3832908736
 H        -2.2333726593       -2.4575604151       -1.2512135596
 H        -2.1796875814       -2.8539805906       -2.9844526825
 H         1.8593932956       -6.0069998248       -0.1265068293
 H         1.9428960230       -4.3262917154       -0.5994842581
 H        -1.9249609138       -6.3798667150       -1.8649974315
 H        -2.2596473424       -5.1327123279       -3.3009281304
 H        -2.5610743791       -4.8702634674       -1.4963197300
 H         0.0573407811       -5.9900135943       -3.7708950941
 H         1.3320882799       -4.8408617472       -3.1851918572
 H         0.9442236792       -6.3401920667       -2.4073601585
 H         2.3424185931       -4.7752040709        2.0188863359
 H         0.6084313690       -5.0112600485        1.9905257969
 H         4.7743238605       -1.8852097691        3.5221666234
 H         4.9048874290       -3.1557380740        2.3990321079
 H         0.3826141452       -0.8258829336        2.7078065059
 H         1.6615267458       -0.0125557532        1.6165061941
 H         1.9167287324       -0.2640386425        3.4970107444
 H         3.1094475200       -2.1810331812        4.4336153560
 H         1.3512851683       -2.5242382067        4.4158146906
 H         2.5011184290       -3.7188949373        3.7813596029
 H         5.5915145461        0.0143165420        2.0623054287
 H         6.8609598315       -1.3626554208        2.4572318893
 H         8.0256186552       -1.2325535261       -3.1762020708
 H         6.8546659267       -2.1909039295       -2.0662330987
 H         6.9885440623        1.8113077674       -0.2753866969
 H         8.4607147089        1.3054555689        0.5745102186
 H         7.0152516134        1.1201333170        1.4013216953
 H         9.4496793704       -0.3743524894       -0.9746723927
 H         9.1264831035       -0.9524541427        0.7232943640
 H         8.7349007867       -1.9305874176       -0.7952141682
 H         5.9956757098       -2.2406553071       -4.3809166977
 H         6.4413547266       -0.5092680742       -4.7075521684
 H         4.5221243291        1.4908120468       -3.1298488372
 H         3.6957216810        2.4844172338       -4.2937066760
 H         4.8600708950        0.8518372198       -5.3089433959
 H         3.5971753956        0.4677896973       -6.6659738112
 H         5.0333751731       -0.5271841675       -6.4524992781
 H         2.3700235474       -1.4527735984       -6.3294719987
 H         3.4383405758       -2.7123654892       -5.3580606771
 H         1.9884712338       -2.2475339946       -4.6876620597
 H         2.6739721106        3.5747930595       -2.7237198094
 H         1.5721302514        2.2332045687       -2.3857542993
 H         3.0403786963        6.7519848548        0.3364632247
 H         2.3905091863        6.0041010345        1.7697277908
 H         4.0546606708        5.7346325615        1.2038261990
 H         4.6664767436        2.1002456803        1.2509625379
 H         3.0605021400        2.5961003531        1.8502570620
 H         4.4522015750        3.6562107615        2.0471704496
 H         4.7138050038        4.3862200228       -1.7551352354
 H         5.3602528194        4.8544445769       -0.1431309988
 H         5.6569466810        3.2974371930       -0.8594129913
 Na        2.1018982862       -0.7799874142       -1.3554265995
