155

 C       -11.5351938214        3.8333950016        5.9926065886
 C       -10.2594994835        4.1417037699        5.1872378117
 C        -9.3741767244        2.9965592168        4.7386246588
 C       -10.0848212623        2.5188176873        3.3867012282
 C        -9.5739488519        3.0791454523        2.0389150262
 C        -7.9810766295        3.4733511540        4.6397107502
 C        -9.4424145937        1.8455612358        5.7720843942
 O        -9.9082352196        5.2799453810        4.9175796592
 O       -11.0788579380        1.8117804132        3.5357505269
 C        -9.5022734983        1.9813928466        0.9608558965
 C        -8.3435900000        1.0284174024        1.3342491139
 C        -8.1359368523       -0.2281948144        0.3672388520
 C        -6.8692359793       -0.0535732383       -0.4696288726
 C        -5.5259958316       -0.6717364903        0.0075129304
 O        -7.6377298115        1.2274927358        2.2597502159
 O        -6.9032177609        0.6979561192       -1.4026143273
 C        -8.2345742042       -1.5200831147        1.2123007851
 C        -9.2118193778       -0.2763080930       -0.7523059753
 C        -4.5512429414        0.4639586232       -0.0819903084
 C        -3.1252993034        0.0393670246        0.0953775955
 C        -1.9872311669        1.1360965105       -0.5295868108
 C        -0.7826124218        0.3489437497       -1.0777715570
 C        -0.8724677072       -0.4832021739       -2.2827356755
 C        -2.6584870685        2.0226869807       -1.6121820326
 C        -1.6148559873        1.9904611532        0.7050269903
 O        -2.7900798592       -0.8918385261        0.7759927739
 O         0.2814679114        0.3393172193       -0.5128013676
 C        -1.1473889989       -1.9274575601       -1.8110956545
 C        -0.0940727938       -2.9058972990       -2.3814768393
 C        -0.3923563081       -4.4573186765       -2.1149616080
 C        -0.2312343816       -4.8520715341       -0.5359169118
 C         1.1448963962       -5.4354436971       -0.0646382005
 O         1.0122782164       -2.5535914971       -2.6951505280
 O        -1.2039271766       -4.7190537234        0.2247145977
 C        -1.9115186924       -4.7096521273       -2.4538051183
 C         0.5696896464       -5.2468360039       -2.9617696480
 C         1.4867053263       -4.6405066909        1.2797703595
 C         1.6767065797       -3.1192410858        1.0554564929
 C         2.3596506663       -2.1353635321        2.3130531738
 C         3.7324495093       -1.6785335799        1.8240335599
 C         4.9011111463       -1.2499152470        2.6939022857
 C         1.3876789877       -0.9498731186        2.5556672917
 C         2.4779679219       -3.0482919026        3.5345298474
 O         1.4028514462       -2.6758308542       -0.0052185501
 O         3.8899274231       -1.5685020084        0.6246965484
 C         5.8091321626       -0.2636688338        1.9481445746
 C         6.8260526522       -1.0406396856        1.1233725322
 C         7.7489964576       -0.4060498782       -0.0997934457
 C         6.8416963865       -0.3147751786       -1.2722538408
 C         6.8068404980       -1.4117449691       -2.3383942982
 O         7.0012804336       -2.1702813388        1.3936226957
 O         6.1265102087        0.6752779978       -1.3511267273
 C         8.2234328572        0.9066287353        0.3740988004
 C         8.9822970536       -1.3235702069       -0.4141058211
 C         6.1492136295       -1.2050858076       -3.6185621389
 C         4.5778415323       -1.1441203036       -3.5114119099
 C         3.7721104388       -0.4412465275       -4.6207622455
 C         2.9037427534        0.7970803511       -4.0620840863
 C         3.4819172176        2.1999753384       -4.0441338067
 C         4.6365127254       -0.0004365185       -5.8356226822
 C         2.7309299387       -1.3418886514       -5.3245195762
 O         4.0999506673       -1.6193707398       -2.4585780354
 O         1.8335657236        0.5618726412       -3.5838547478
 C         2.7679033040        3.0255625659       -2.8503685217
 C         3.2436159337        2.4455861860       -1.4921272259
 C         3.5222618017        3.3986680784       -0.3164576849
 C         2.2284810993        4.2825115186       -0.1516591639
 C         2.2303970266        5.3900148107        0.9207072063
 O         3.3525077510        1.2845253125       -1.2771431362
 O         1.2288474898        3.9675352042       -0.7395384726
 C         3.6670198589        2.6541951664        1.0128483515
 C         4.7503975890        4.2475573273       -0.6507285010
 H       -12.4080460840        3.6990294442        5.4098460981
 H       -11.3491546731        3.0267517409        6.6557590147
 H       -11.8279267027        4.6414229927        6.6746990203
 H       -10.4732965080        3.6806543059        1.7109008460
 H        -8.6987728535        3.7485504621        2.0903822468
 H        -7.8175024846        4.5353308483        4.6120356324
 H        -7.4790540770        3.0756183253        3.7724074468
 H        -7.3314572190        3.2061663749        5.4146951088
 H       -10.4070037656        1.3331263924        5.7802221903
 H        -8.7051431633        1.0383408245        5.4520572125
 H        -9.1869763133        2.2144869690        6.7647515346
 H       -10.4487159926        1.5867982958        0.8407184277
 H        -9.3030288544        2.3364571442        0.0147273458
 H        -5.6635477459       -1.0948923471        1.0418809724
 H        -5.2520263219       -1.5428041454       -0.6072380895
 H        -9.2580875054       -1.6913927164        1.5767603315
 H        -7.5695705267       -1.3900277084        2.0328864817
 H        -7.9886466045       -2.4274085686        0.6253863083
 H        -9.5141102954        0.6954824938       -1.2254796361
 H        -8.9889444042       -0.9433469857       -1.6308970926
 H       -10.1406005597       -0.6288546146       -0.2757780855
 H        -5.0135984448        1.1198224794        0.7503032492
 H        -4.7817949233        1.0203493368       -0.9636360614
 H        -1.5003379999       -0.1572008146       -3.0595967053
 H         0.1643434976       -0.3945978359       -2.7725774947
 H        -2.9109059805        1.4866484763       -2.5612183327
 H        -2.1665209050        2.9361805387       -1.8119803036
 H        -3.5965501721        2.4298916788       -1.2932250201
 H        -0.6033281848        2.4087629901        0.5634471846
 H        -2.3418426414        2.8456142668        0.7540919744
 H        -1.5285509264        1.4716483344        1.6391823385
 H        -0.9017578565       -1.9585758030       -0.7374058310
 H        -2.1742372801       -2.1350108675       -1.8314213491
 H         1.2178972670       -6.5077129472        0.1786517790
 H         1.8161545946       -5.1962719169       -0.8634046791
 H        -2.1106238178       -5.7407333663       -2.1606658546
 H        -2.2688923956       -4.6555176541       -3.4317408420
 H        -2.5275309745       -4.1354058992       -1.7971898435
 H         0.0841492089       -5.6258563567       -3.8613234984
 H         1.3921745092       -4.6427834409       -3.3074957814
 H         1.0762148553       -6.1008237542       -2.3300076042
 H         2.2496697638       -5.1136744642        1.8855826481
 H         0.5763419654       -4.6076458383        1.8794367755
 H         4.5401229135       -0.7360965232        3.5934678972
 H         5.3510264439       -2.1722343736        3.0807622243
 H         0.5431916691       -1.4124053534        3.0872288125
 H         1.1600979597       -0.5935713633        1.5944429109
 H         1.8227066360       -0.2823153438        3.2155469755
 H         2.6955880766       -2.5689859191        4.4646537275
 H         1.5650734524       -3.6247071457        3.5624655460
 H         3.3122545264       -3.7012774844        3.1926667066
 H         5.1669040637        0.3154393437        1.2576766145
 H         6.2788294479        0.4389923927        2.6136358319
 H         7.7719791174       -1.6934281731       -2.6463268984
 H         6.4947154940       -2.2941265920       -1.8126281671
 H         7.5769006730        1.7593916610        0.0347432883
 H         9.1865418959        1.1074935406       -0.1264151737
 H         8.2013515919        0.9131738090        1.4794107119
 H         9.4385784343       -0.8911688836       -1.3527534961
 H         9.7685329177       -1.2566238883        0.3514054323
 H         8.6685724573       -2.3181080707       -0.4829368430
 H         6.3208414300       -2.0048983980       -4.3096249703
 H         6.5364729742       -0.2340753854       -4.0657753347
 H         4.5695605546        2.2615562312       -3.8267282159
 H         3.3116318815        2.7470006005       -4.9012955512
 H         5.3953829405        0.8659246251       -5.6695412773
 H         4.0065120105        0.3197235861       -6.6901449722
 H         5.3511717654       -0.8036511481       -6.1352865066
 H         2.2574427225       -0.9356819795       -6.1180280192
 H         3.1860646729       -2.2407668965       -5.7886047606
 H         1.8549858350       -1.6504234762       -4.6304038823
 H         2.9779991042        4.0824259484       -3.1536611098
 H         1.6721586430        2.8786417575       -3.0362678461
 H         2.2586981477        4.9679613594        1.9745601799
 H         2.9625379246        6.2363257463        0.7843414380
 H         1.2121005615        5.8205846179        0.7648003483
 H         4.2994973538        1.7767924195        0.8168348672
 H         2.7291482159        2.3085313723        1.4131145794
 H         4.2735316333        3.2356801530        1.7157444634
 H         4.5937906485        4.9315534836       -1.4830854997
 H         5.1528111358        4.8602042448        0.1417846561
 H         5.6356453756        3.5790962564       -0.9229843969
 Na        2.0936833925       -0.7508145210       -1.2067410090
