155

 C       -12.3818833191        4.1557188275        4.8542243854
 C       -10.8619190110        3.7267071889        4.9189213917
 C       -10.3874414554        2.1608179739        4.8875793853
 C       -10.5217743840        1.5090374521        3.4161098940
 C       -10.4571527459        2.5488585297        2.2309237015
 C        -8.8748806032        2.0982669109        5.0835352248
 C       -11.1508560247        1.2580723127        5.9179496454
 O        -9.9933567677        4.5484077212        4.7580938640
 O       -10.2325691941        0.3444713411        3.2169677565
 C       -10.1528219387        1.8477473301        0.8771432445
 C        -8.7257571313        1.3064082550        0.9208632951
 C        -8.3643480811        0.1227116266        0.0805288696
 C        -6.8345798667        0.2494557048       -0.5104252335
 C        -5.6133985899        0.4158097190        0.3924987674
 O        -7.9204738675        1.8217373081        1.7165143305
 O        -6.6888434887       -0.0133543654       -1.6864520420
 C        -8.5205808134       -0.9832266614        1.0598246568
 C        -9.2874941585       -0.0573304269       -1.0801314485
 C        -4.5085781576        1.1351870079       -0.3134855507
 C        -3.1149426153        0.4511333410       -0.1273969865
 C        -1.8634357413        1.2609274151       -0.0442882500
 C        -0.6490173635        0.3960815118       -0.8573792417
 C        -0.9713828981       -0.1854901511       -2.1839755260
 C        -1.7870727630        2.6455141904       -0.7313745706
 C        -1.4480828465        1.4421800776        1.5146978255
 O        -3.0607982459       -0.7746377554        0.0830532555
 O         0.4502567333        0.2264640158       -0.3366149286
 C        -1.4174064650       -1.7105922101       -1.9940775847
 C        -0.3119839852       -2.7319480291       -2.3340560082
 C        -0.5609485354       -4.2716548328       -2.1218624104
 C        -0.0279036278       -4.6885783678       -0.6322635835
 C         1.4379724341       -5.2776298319       -0.3613650804
 O         0.8272013574       -2.3567593040       -2.5841073090
 O        -0.7917066519       -4.7478093843        0.2481318064
 C        -1.9493545164       -4.9320221562       -2.2155572903
 C         0.2756730003       -4.8291347047       -3.2255403841
 C         2.1243721413       -4.8366718144        0.9448595767
 C         2.2338711733       -3.2940520618        0.8546142308
 C         2.6962324150       -2.4324009516        1.9712568188
 C         3.8691765368       -1.2821179192        1.3706682128
 C         4.8456461062       -0.4796881614        2.3336693820
 C         1.5461299602       -1.5048675408        2.6293953553
 C         3.4449957593       -3.1001988926        3.1115020372
 O         1.7536693383       -2.7650359146       -0.1532902541
 O         3.8340283984       -0.8681620495        0.2625540877
 C         6.1152518942       -0.0933485454        1.5322527102
 C         7.0520130139       -1.3830730465        1.3347344985
 C         8.3287654094       -1.0415350082        0.4594965497
 C         7.7323810418       -0.6766532488       -1.0002412767
 C         7.4230460815       -1.7311812818       -2.0551890217
 O         6.8311746066       -2.5135481674        1.7592976086
 O         7.6051498574        0.4963178199       -1.2815314243
 C         9.1889671281        0.1584265165        1.1272454216
 C         9.2317497415       -2.2705290989        0.4697136761
 C         6.7138383097       -1.1489551458       -3.2591542648
 C         5.0448005765       -1.1284119999       -3.1420934488
 C         4.2518569995       -0.4513732800       -4.4888976560
 C         3.3336383669        0.6090488776       -3.8167770849
 C         4.0932686401        1.9056431674       -3.4467398864
 C         5.1991932498        0.1723605144       -5.4576980775
 C         3.4696864907       -1.6028440952       -5.2676770715
 O         4.4783956886       -1.5826817522       -2.2200684250
 O         2.1521281495        0.4950993219       -3.5040632173
 C         3.1718117224        3.1036888668       -2.8719186551
 C         2.7542297315        2.8389337109       -1.3625070441
 C         2.6575627557        4.0920845770       -0.3382283603
 C         1.3174570085        4.8639063505       -0.5560045702
 C         0.9165547760        5.9619697570        0.4791056357
 O         2.5325034242        1.7220708434       -0.9181150321
 O         0.4866073773        4.4892505133       -1.3577800574
 C         2.7146681566        3.5590718762        1.1320273558
 C         3.7979152502        5.0724735903       -0.5254735520
 H       -12.8823761862        3.5625094763        4.0489122962
 H       -12.9580868744        3.7365708107        5.7237368741
 H       -12.5101605562        5.2514178501        4.8081684341
 H       -11.4410164132        3.0986063441        2.2979613840
 H        -9.6625154586        3.2723079646        2.3964370027
 H        -8.4009047589        1.1062131861        4.9722690861
 H        -8.5657333616        2.2592098635        6.1436088677
 H        -8.3238168733        2.7778666989        4.4149832325
 H       -12.2221770836        1.4160425391        5.6785359276
 H       -10.9265609212        0.1821477029        5.7489157829
 H       -11.0148535821        1.5617942524        6.9455023914
 H       -10.9175968214        1.1895078389        0.6420143555
 H       -10.1340752400        2.6994578718        0.2556892072
 H        -5.7545685353        1.0503665402        1.2469207898
 H        -5.1838449066       -0.5787319698        0.5743970172
 H        -9.5266945020       -1.0259767821        1.3422859039
 H        -7.7814754031       -0.9237509220        1.9025199048
 H        -8.2452313596       -1.9272727730        0.5430041577
 H        -9.2611954156        0.7861266646       -1.7769019447
 H        -8.9890654508       -0.9775214267       -1.6039187587
 H       -10.2716693192       -0.2218129401       -0.6312942687
 H        -4.3788879404        2.2447246881       -0.0432015839
 H        -4.7516624838        1.0863462294       -1.3601451193
 H        -1.8629445736        0.3442949779       -2.6140184199
 H        -0.0927199166       -0.1495230219       -2.7485883136
 H        -2.1123782415        2.7071029633       -1.7388419368
 H        -0.7354995648        3.0602156749       -0.7010717741
 H        -2.3200506351        3.3938011715       -0.1262586686
 H        -0.4691915931        1.8863295604        1.5501855082
 H        -2.2991661919        1.8490068615        2.0829209529
 H        -1.3387768482        0.4400813250        2.0045485495
 H        -1.5879252935       -1.8668853820       -0.8477349701
 H        -2.3541713602       -1.9650583372       -2.4030031014
 H         1.2483887009       -6.3661970303       -0.4371528002
 H         2.0743091645       -4.9985640179       -1.2489860668
 H        -2.0462192119       -5.9185467631       -1.7899705163
 H        -2.3796478741       -5.1018308871       -3.2333212982
 H        -2.7319576228       -4.2904653340       -1.7729916103
 H        -0.1501860226       -4.4230576031       -4.1746502425
 H         1.3144440302       -4.5165164143       -3.1565695415
 H         0.0700510285       -5.8115140063       -3.2298267184
 H         3.0789606215       -5.3738332268        1.1934762866
 H         1.4429897617       -4.9482465250        1.7722427522
 H         4.3306743800        0.4253242671        2.6117261206
 H         5.2626060249       -1.0228725485        3.2131249515
 H         1.0409575571       -2.2136379051        3.2755451406
 H         0.8824937759       -1.1166552619        1.8450162695
 H         2.1347582220       -0.8024064561        3.2265648469
 H         3.6261288809       -2.3630755255        3.9421836873
 H         3.0346634097       -3.9483825964        3.6391944941
 H         4.3777309158       -3.4447202395        2.7538573739
 H         5.8658372708        0.3460612492        0.6690606313
 H         6.5579738606        0.7106362455        2.1482743111
 H         8.4459511530       -2.1176214846       -2.2112297163
 H         6.8983639021       -2.6815762000       -1.6594460329
 H         8.9291573989        1.0266529352        0.5720901426
 H        10.2715508179       -0.0414039247        1.2206017955
 H         8.9532637284        0.4467481065        2.1286493926
 H         9.8953207109       -2.3934495400       -0.3359709449
 H         9.7846613994       -2.3221881040        1.3676318084
 H         8.5173846748       -3.1475050726        0.3870048832
 H         6.8279038861       -1.8395325541       -4.1245562743
 H         7.0425106339       -0.1222225190       -3.5982280573
 H         4.8769995544        1.5834070378       -2.6683201518
 H         4.6815711543        2.3752918528       -4.2141402938
 H         5.7213574200        1.0541626064       -5.3715172937
 H         4.7342199668        0.5421853936       -6.3308141280
 H         5.9265577252       -0.5278237039       -5.7383873657
 H         3.1303917623       -1.3523850768       -6.3024635959
 H         3.9510621413       -2.5402166226       -5.2425235963
 H         2.4820893847       -1.7757257561       -4.8792720956
 H         3.7912153558        3.9595285557       -2.9224906073
 H         2.3370865425        3.3026071257       -3.5182232070
 H         0.8110654030        6.8129106867       -0.1443305457
 H        -0.0406564742        5.7766848987        0.9603785557
 H         1.6398292962        6.1249120165        1.2482790821
 H         3.7597415531        3.5116810550        1.4426207579
 H         2.1513250314        2.6859854634        1.3291111424
 H         2.2840014186        4.3172731608        1.7406536689
 H         3.7977991303        5.6060651854       -1.4885304882
 H         3.6578689984        5.8620282922        0.2313452349
 H         4.8245776966        4.7286550952       -0.3192572058
 Na        2.2336564579       -0.7210987974       -1.5403828677
