155

 C       -12.6554609761        3.9612208899        4.6555839268
 C       -11.2486021397        3.4909312127        4.8740155537
 C       -11.0393987851        1.9145348100        4.9867522832
 C       -10.9971361783        1.2401154887        3.5032447072
 C       -10.5002094979        2.1563026884        2.3556388264
 C        -9.5551406247        1.7650426155        5.3256384344
 C       -12.0130948226        1.3608246498        6.0401856776
 O       -10.3813884921        4.3060819819        5.0279354704
 O       -11.1995092403        0.0622413658        3.3483375266
 C       -10.4175753387        1.3815085920        1.0283600927
 C        -9.0022321923        1.3712672662        0.5551528219
 C        -8.3961458338        0.1116398230       -0.1391101658
 C        -7.0006327720        0.7017061612       -0.6620471624
 C        -5.6985126376        0.3442098143        0.0946084601
 O        -8.1244198105        2.1490046259        0.9450523580
 O        -6.9274154084        1.2110361122       -1.7729712237
 C        -8.2785639068       -0.9803643209        0.9574562794
 C        -9.3190999138       -0.4435872443       -1.2796901413
 C        -4.4104645052        1.0932279799       -0.2202033314
 C        -3.1514844341        0.2796038777        0.1469709087
 C        -1.7757866793        1.0343133138       -0.0777072238
 C        -0.6334055966        0.1515831650       -0.6302984207
 C        -0.7640057957       -0.5079523807       -1.9705623571
 C        -1.8228751433        2.3704545898       -1.0082521209
 C        -1.5154615997        1.4350220034        1.4212283353
 O        -3.0418098724       -0.7970393315        0.6176738273
 O         0.4060325763        0.0316821191        0.0575282719
 C        -1.1939480777       -1.9794021937       -1.7675455754
 C        -0.0930726829       -2.8640390768       -2.3753680745
 C        -0.3105165837       -4.3826723166       -2.2861294583
 C         0.4457075620       -4.6033503228       -0.9035483349
 C         1.9061017830       -5.0635907128       -0.7930580130
 O         0.9264577074       -2.3927949220       -2.8157575927
 O        -0.1696801773       -4.3091567780        0.1125755289
 C        -1.7687064092       -4.7377995000       -2.1468672611
 C         0.4721957410       -5.0439547512       -3.4522505540
 C         2.5705594159       -4.5271790847        0.5608344316
 C         2.4090248985       -2.9899249462        0.7761079215
 C         2.8626996933       -2.3973098922        2.0970480867
 C         3.9454879418       -1.1170297981        1.7701574793
 C         5.0228324012       -0.8313867111        2.8440044608
 C         1.4892882650       -1.7006950964        2.5503472561
 C         3.3839210722       -3.3588891273        3.1198111874
 O         2.0661177313       -2.3651339752       -0.2099455355
 O         3.6381086126       -0.4577765090        0.8014316311
 C         6.4518820692       -0.4733961222        2.3158359211
 C         6.9355319403       -1.5283901611        1.1927490738
 C         8.3950116753       -1.3485622344        0.5776688850
 C         8.0774238363       -0.9938546300       -1.0036938249
 C         7.4530459193       -2.0980316876       -2.0208096348
 O         6.0585869633       -2.2633502465        0.6732035567
 O         8.2669735531        0.1801286036       -1.3781430208
 C         9.2017612888       -0.1860991290        1.1379658849
 C         9.1678757403       -2.6805157616        0.6748496379
 C         6.8055050761       -1.3684544267       -3.1889894943
 C         5.3586772062       -0.8203493872       -2.9681497697
 C         4.4590337450       -0.2898068157       -4.2566440526
 C         3.4449117037        0.7541807201       -3.8021444796
 C         4.1192742535        2.0747310396       -3.2353032615
 C         5.3649390996        0.4086023046       -5.3531149224
 C         3.6549919134       -1.4756365995       -4.8024631024
 O         4.8987993042       -0.6601674919       -1.8489990838
 O         2.2636170356        0.5844406694       -3.9235825546
 C         3.1369976548        3.1091864367       -2.6662779976
 C         2.7251109143        2.9789968467       -1.1911289964
 C         2.5329631619        4.2303736642       -0.3862089658
 C         1.2512687339        5.0488824360       -1.0286483788
 C         0.5534645442        6.2017972253       -0.3006585836
 O         2.6146647475        1.8881685665       -0.6144760262
 O         0.9244163304        4.6498290755       -2.1301251139
 C         2.2117350550        3.8251979229        1.1006437810
 C         3.7897282075        5.0797738012       -0.4108810363
 H       -13.2117401670        3.1750909002        3.9744382646
 H       -13.1698286817        4.0534490358        5.5670736253
 H       -12.6911026893        4.9092560684        4.1261488431
 H       -11.1970237463        3.0185900529        2.3496858686
 H        -9.4334334388        2.4022972711        2.6753293020
 H        -9.1857040429        0.7074987775        5.1018042451
 H        -9.2851655695        1.8315304800        6.3998455519
 H        -8.9056457651        2.3416291671        4.6777002873
 H       -13.0595838490        1.4684666079        5.7736408994
 H       -11.7941379157        0.2833501363        6.2438645798
 H       -11.8314243957        1.9539279488        6.9407520689
 H       -10.9192158285        0.3864909496        1.2018417770
 H       -11.1735026852        1.8303719664        0.3304746782
 H        -5.8999353569        0.5136800639        1.1384056204
 H        -5.6050509146       -0.6673440196       -0.1680415272
 H        -9.1910840460       -1.5752168231        1.1936771864
 H        -7.9109318747       -0.4872021954        1.8389539628
 H        -7.5626733720       -1.7252765725        0.5721026766
 H        -9.0919069553        0.1902630554       -2.1286426933
 H        -8.9783310794       -1.4533016561       -1.4657745215
 H       -10.3403942777       -0.3470390341       -1.0238108172
 H        -4.3185511473        1.9852764543        0.3463022831
 H        -4.5377300825        1.3424194868       -1.3196014720
 H        -1.4614066843       -0.0822181112       -2.6425259810
 H         0.2691709784       -0.4836142139       -2.5386537723
 H        -2.4640132226        2.2963971961       -1.9814848219
 H        -0.7903499156        2.6088645262       -1.1739547793
 H        -2.2303125019        3.2151011661       -0.4875206049
 H        -0.6556872930        2.1563105350        1.5272716928
 H        -2.3593887194        2.0502172157        1.7629483489
 H        -1.2606062368        0.5199086677        1.9180541577
 H        -1.1058514589       -2.2509953824       -0.7507092339
 H        -2.1795018905       -2.1458789100       -2.1743851795
 H         1.7176649390       -6.1730884208       -0.6062860006
 H         2.4478270133       -4.9680439227       -1.7338376796
 H        -1.8680553122       -5.7349993555       -1.5827293261
 H        -2.3033888569       -4.8004279066       -3.1146058233
 H        -2.4333323021       -4.0314756047       -1.5990074048
 H         0.3807007131       -4.3509417655       -4.2787870812
 H         1.4692486586       -5.1974459133       -3.1320782683
 H         0.0721982252       -6.0582755717       -3.5991306439
 H         3.6161143322       -4.7745072273        0.4939975466
 H         2.1973216315       -5.0774973113        1.4919705315
 H         4.7475201958       -0.1052816842        3.6670102851
 H         5.2090369529       -1.7375773831        3.3916436062
 H         0.8918986848       -2.4096566687        3.2359760339
 H         1.0460123786       -1.3204305136        1.6110733001
 H         1.8567121761       -0.9179465936        3.1882381705
 H         3.5124041087       -2.9222501223        4.0877256051
 H         2.8986104306       -4.3255899755        3.2762880896
 H         4.4330557844       -3.6796174744        2.9660540132
 H         6.4684086606        0.5784836390        1.9361818052
 H         7.0935776646       -0.4403471438        3.2181132231
 H         8.2585445427       -2.8278361995       -2.2160526903
 H         6.6275432579       -2.4679765607       -1.4566631930
 H         8.6580658157        0.7270268053        1.1657201973
 H        10.0227813352        0.0996487902        0.5077200281
 H         9.4617589421       -0.3697080599        2.1238176297
 H         9.7802057066       -2.8933452541       -0.2118084614
 H         9.7666089508       -2.8132380009        1.5376625116
 H         8.4854482260       -3.5189512187        0.7624358429
 H         6.9086615164       -2.0037189659       -4.0922414160
 H         7.2539297204       -0.4178002092       -3.4907797058
 H         4.7173899894        1.7268090533       -2.4198034250
 H         4.8128476405        2.3882407566       -3.9331718182
 H         5.7848638595        1.3939424049       -5.0715418351
 H         4.9646113254        0.4559310211       -6.3384030507
 H         6.3104225450        0.0007587063       -5.6314276883
 H         2.8281479585       -1.1429621925       -5.4224671675
 H         4.1832518723       -2.1476104084       -5.5287430367
 H         3.1791658332       -1.9834294705       -4.0883938249
 H         3.4932945383        4.1330022613       -2.8238746741
 H         2.2203525197        2.9954547214       -3.1901955929
 H        -0.1668709376        5.7381710335        0.2559547859
 H         1.2908490900        6.5911391390        0.4194232632
 H         0.2844601176        6.9609668601       -0.9839989863
 H         2.9747441254        3.1791286359        1.5594213187
 H         1.3475944787        3.2529709887        1.1059078265
 H         2.1020997372        4.7366233906        1.7000242900
 H         4.0836647025        5.3303530388       -1.4216588155
 H         3.6106218796        6.0214184119        0.0773685571
 H         4.6546013758        4.5221982042        0.0676492134
 Na        2.4574207206       -0.4840315848       -1.2523174857
