155

 C       -13.8816535438        3.5896090169        4.8333050250
 C       -12.4086737525        3.1050008017        4.8343709019
 C       -12.0345795295        1.5706655986        4.9401771175
 C       -11.8010972034        0.9984012581        3.4302403950
 C       -10.4484436483        1.2586710754        2.8445505076
 C       -10.7433957763        1.4544501290        5.7652793892
 C       -13.3119715240        0.8919605429        5.6121088494
 O       -11.4924587772        3.8870037376        4.7499936008
 O       -12.6516778639        0.4177343821        2.7945449849
 C       -10.2365537145        0.5513701216        1.5040590739
 C        -8.7782830625        0.7399189658        1.0227869497
 C        -8.3828347353        0.1039572034       -0.3007619686
 C        -6.9781213185        0.6233237780       -0.7717097655
 C        -5.5735114265        0.4246850456       -0.0828169762
 O        -7.9943764929        1.4637001889        1.5893045644
 O        -6.9187438972        1.1191945458       -1.8819775003
 C        -8.3060144057       -1.4431627169       -0.2448411309
 C        -9.3912134879        0.5487352834       -1.4252633413
 C        -4.3812906541        1.3467950079       -0.3751617318
 C        -3.0190681096        0.5320148384       -0.3999573532
 C        -1.7369179775        1.3067081705       -0.3300423144
 C        -0.4342890503        0.3975877904       -0.5467150238
 C        -0.3832641800       -0.5293300421       -1.6938867841
 C        -1.6452674648        2.3680896145       -1.4467148311
 C        -1.7067639953        1.9269391987        1.0561373701
 O        -3.0778073496       -0.6888275993       -0.6763577813
 O         0.4460359107        0.3737510260        0.2942794751
 C        -0.1420658141       -1.9790967707       -1.2971269142
 C         0.5688916965       -2.7977572036       -2.3722589078
 C         0.6971289114       -4.3688081465       -2.3020566151
 C         1.2794043590       -4.6598812299       -0.9074872077
 C         2.8306157554       -4.8809508690       -0.9390246737
 O         1.3316732591       -2.2664775992       -3.2073221447
 O         0.6348576236       -4.4931025596        0.1072576784
 C        -0.6287700744       -5.1228350602       -2.3591060824
 C         1.5301004840       -4.9364032819       -3.4427881409
 C         3.4552332796       -4.4716424893        0.3673765483
 C         2.9975420274       -3.0335635637        0.6423590968
 C         2.9152302590       -2.4380490138        2.1340553126
 C         4.0031723590       -1.3457890718        2.1494673230
 C         5.1855835945       -1.4599266568        3.0639236726
 C         1.5316496178       -1.8207443342        2.1939059972
 C         2.9616443719       -3.4746829128        3.2164388379
 O         2.9670179007       -2.2233049683       -0.3269851460
 O         3.7904160402       -0.2953489015        1.6178496169
 C         6.5623095638       -1.1114623248        2.2753017040
 C         7.0412624836       -2.3286609509        1.5606130958
 C         8.1728695496       -2.2250278966        0.4740657390
 C         7.5214570594       -1.5190995662       -0.7433339887
 C         6.8422419508       -2.3645096164       -1.8426866570
 O         6.2769498318       -3.2781420766        1.4660003239
 O         7.4751245556       -0.3092800758       -0.8103761675
 C         9.2558013503       -1.2394140491        1.1076059237
 C         8.7981423484       -3.6053163434        0.2387656384
 C         6.3602431667       -1.4628036247       -2.9714524210
 C         5.1772094615       -0.5003901152       -2.6157316686
 C         4.5927540602        0.2847684101       -3.8550526622
 C         3.5470808972        1.2626034477       -3.3717209440
 C         4.0332499886        2.7595708614       -3.4123894874
 C         5.6395748632        0.9685986052       -4.7773604799
 C         3.8416774191       -0.8234881850       -4.6605307705
 O         4.6779398137       -0.3850506358       -1.5070408507
 O         2.5015097478        0.8598905929       -2.8219456942
 C         3.1106118099        3.7370680887       -2.8397341691
 C         2.9648512495        3.5795227159       -1.3038098754
 C         2.3416136598        4.9072701635       -0.6799839139
 C         1.1823056326        5.4349991803       -1.7217221449
 C         1.0037499560        6.9892325971       -2.0744749144
 O         3.2233643865        2.6040601536       -0.6501450038
 O         0.3025986354        4.6770933246       -2.1103106883
 C         1.6735033920        4.6237049703        0.6467518138
 C         3.5359954051        5.9989663803       -0.5960361654
 H       -14.2486431959        3.4776300214        3.8886821749
 H       -14.5838344048        2.9595978313        5.4275705343
 H       -13.9005780795        4.6018814631        5.2080396501
 H       -10.2035696741        2.2596981792        2.5959236585
 H        -9.6195099688        1.1363256056        3.5164688844
 H       -10.4743980946        0.4155513283        5.9912177593
 H       -10.7452803780        1.9454807534        6.7558582645
 H        -9.9574115375        1.8097401094        5.1048827015
 H       -14.1026578049        0.8151649085        4.8559440539
 H       -13.1903524773       -0.1727872035        5.9271417837
 H       -13.5953163744        1.4645156862        6.4622655487
 H       -10.2976499240       -0.4499462510        1.8008979878
 H       -10.9570297578        0.6973696417        0.8168974956
 H        -5.7539365965        0.2978702614        1.0700590124
 H        -5.3245381741       -0.6540244674       -0.3053798404
 H        -9.2790265292       -1.7942269422       -0.0140471748
 H        -7.6186330288       -1.7952013935        0.5816245144
 H        -8.0355134916       -1.8982588145       -1.2352613347
 H        -9.7599313300        1.4865968266       -1.0975293133
 H        -9.0111097942        0.6220854320       -2.4211595313
 H       -10.1809528740       -0.1720851457       -1.3516427475
 H        -4.4342830571        2.1125607651        0.3820694688
 H        -4.5954517904        1.9164941460       -1.3087385002
 H        -1.2498542217       -0.4524645269       -2.2935254430
 H         0.5037100925       -0.1823361209       -2.2673203910
 H        -1.7884578284        1.9052998830       -2.3450451380
 H        -0.6780613106        2.9450139756       -1.3417670363
 H        -2.4258182096        3.1050893748       -1.2667291593
 H        -0.7411132998        1.7519472118        1.4361126681
 H        -2.0828396932        2.9490832103        1.0266105423
 H        -2.3912948890        1.4689744555        1.7835201799
 H         0.6181132119       -1.9686350177       -0.4375477047
 H        -0.9696201311       -2.4860006883       -0.9173179853
 H         3.1646233629       -5.7543448975       -1.4586910792
 H         3.0222868617       -4.1002106136       -1.6646849928
 H        -0.4175193554       -6.1731017653       -2.1426356412
 H        -1.0714341724       -5.0670336110       -3.4018642296
 H        -1.3287768722       -4.7443331777       -1.5820417525
 H         0.8350796103       -5.1891825888       -4.2582884262
 H         2.1839277497       -4.1892499291       -3.9619709752
 H         2.0271987498       -5.8829610469       -3.1839638092
 H         4.5311109359       -4.4394055128        0.3429488973
 H         3.1592202327       -5.1180614332        1.2031401180
 H         5.1186586700       -0.8394546562        3.9532216318
 H         5.3621093034       -2.4591427980        3.4376220689
 H         0.9470772134       -2.6629250060        1.9029616480
 H         1.4600392496       -0.9306346158        1.5471528150
 H         1.3889580157       -1.5793550092        3.2762834117
 H         2.8354648179       -3.1137975523        4.3125461445
 H         2.1512322034       -4.2271494359        3.0330176906
 H         3.8474685498       -4.0947623439        3.2890069207
 H         6.5246917530       -0.3188309506        1.6557068945
 H         7.2977515567       -0.9539138294        3.1068089190
 H         7.6629533232       -3.0174977528       -2.2087376988
 H         5.9255298939       -2.7690535655       -1.3877790344
 H         8.7259129842       -0.3848326047        1.5159108544
 H         9.9837487005       -1.0027810199        0.3251387459
 H         9.6983022031       -1.7501354880        1.9575331804
 H         8.8195742529       -3.8873024260       -0.8332282030
 H         9.8122756196       -3.5564723985        0.6585487302
 H         8.1831355122       -4.4283926840        0.7241785747
 H         5.9602307538       -2.1180635766       -3.7484341048
 H         7.2907084167       -1.0816943729       -3.4439314055
 H         5.0298388326        2.7552229442       -2.8119773481
 H         4.2370961038        2.8956316903       -4.4499977835
 H         6.4366351743        1.5576598197       -4.2666301765
 H         5.1249647426        1.7145002197       -5.4280423531
 H         6.1251618345        0.1357169949       -5.3344667083
 H         3.1604701805       -0.2983750602       -5.3320990611
 H         4.5071744827       -1.5110153052       -5.1682834795
 H         3.1872598488       -1.3534565838       -3.8643981523
 H         3.4321124789        4.8267043904       -2.9841792697
 H         2.0569121138        3.6844858603       -3.1889239754
 H         0.7233208003        7.4510417152       -1.0798620662
 H         1.8662489631        7.3765276029       -2.6161221582
 H         0.0546319987        7.0595667667       -2.6247615539
 H         2.4041163731        4.2586721301        1.4024324319
 H         0.8527250034        3.8882285239        0.5242424263
 H         1.2467578376        5.5167657932        1.0978738926
 H         3.7226303864        6.5143688659       -1.5240335741
 H         3.2706546605        6.7256863037        0.1364477786
 H         4.3851673881        5.3858906210       -0.2944873733
 Na        2.6514692095        0.1660320331       -0.2813877334
