155

 C       -14.1438006003        3.2630095879        4.4585537249
 C       -12.6956500617        2.8388623349        4.4312089634
 C       -12.3203885815        1.3059705001        4.8909770178
 C       -11.6427553124        0.9784123018        3.5197883996
 C       -10.1400164190        0.6696648316        3.2748763811
 C       -11.3168036567        1.3126514562        6.0641330034
 C       -13.5728211146        0.5205508404        5.1350490393
 O       -11.8081464300        3.6349160128        4.1774219322
 O       -12.3723128711        0.9129521276        2.5505238218
 C        -9.9743654464        0.8047938490        1.7543432146
 C        -8.5968128900        0.5775769679        1.2684169310
 C        -8.3384405992        0.2367417161       -0.2983608403
 C        -6.9622433532        0.7399060553       -0.7770388608
 C        -5.6486046384        0.2064431611       -0.1830721685
 O        -7.6153642238        0.7354452468        1.9642727249
 O        -6.9004813269        1.2965058090       -1.8644833743
 C        -8.2466990213       -1.2872676088       -0.3887439872
 C        -9.4470778547        0.8287522659       -1.1949567544
 C        -4.4265233542        1.1290638251       -0.4587021799
 C        -3.0691428673        0.2905580272       -0.7356511833
 C        -1.7764898527        1.2378332055       -0.6345135430
 C        -0.3697535171        0.4872792423       -0.6902378876
 C        -0.1966479431       -0.4803085366       -1.8396507002
 C        -1.8360288076        2.2848259674       -1.8481791659
 C        -1.9879126879        2.0182471042        0.7288287530
 O        -3.0068396964       -0.8838018461       -1.0268883344
 O         0.5054448691        0.5368722562        0.1511538453
 C        -0.0617673075       -1.9632799558       -1.4478509395
 C         0.5625239010       -2.7663677385       -2.5822297691
 C         0.7286584275       -4.3203294892       -2.3256026428
 C         1.5895803318       -4.5639367878       -1.0132401896
 C         3.2014467085       -4.6283168366       -1.0041827288
 O         0.8036066687       -2.2672199770       -3.6745652310
 O         1.0868762435       -4.7509241683        0.0871430934
 C        -0.7009564358       -4.9390132543       -2.1348678589
 C         1.3174818938       -4.9625455954       -3.6246907227
 C         3.6828681274       -4.0758650448        0.4016443310
 C         3.1145627314       -2.7590167232        0.8373819215
 C         3.0089873482       -2.3236787545        2.3593356719
 C         4.0563747941       -1.2444653148        2.3455558895
 C         5.3053600213       -1.4074078879        3.2406607194
 C         1.6668457730       -1.7381795918        2.6964225592
 C         3.2818004930       -3.4854928912        3.3024415261
 O         2.6441476554       -2.0537365259       -0.0791064429
 O         3.9460616009       -0.2662671674        1.7027524489
 C         6.8154883233       -1.4274626913        2.5968372705
 C         7.0529497950       -2.6438857284        1.7927209886
 C         8.0868680340       -2.3786631091        0.6238637518
 C         7.4265574640       -1.6336830179       -0.5338164974
 C         6.5286155229       -2.3813053937       -1.5094285119
 O         6.4010904424       -3.6929238462        2.0169178273
 O         7.7828326611       -0.4408904673       -0.7747808774
 C         9.3210786754       -1.6908760983        1.3044189247
 C         8.5271686405       -3.7962104085        0.1365998885
 C         6.2910057157       -1.5288662659       -2.8393727670
 C         5.1628092653       -0.4829197001       -2.7004579730
 C         4.7038936496        0.3466255994       -3.9249190655
 C         3.7131915203        1.4282643074       -3.3590881377
 C         4.1252739440        2.9090926349       -3.2728030031
 C         5.9127933194        0.8743055180       -4.7735248466
 C         3.7663135808       -0.5453562136       -4.7897994068
 O         4.7200056171       -0.2703916458       -1.6036037208
 O         2.5794505731        1.0209590543       -3.0742539709
 C         2.8993239649        3.7232287263       -2.7517073349
 C         2.6985056570        3.7514783636       -1.2183317269
 C         2.2605250192        5.1857405883       -0.6720006143
 C         1.0469162296        5.7306009239       -1.5771766375
 C         1.2441846584        6.9986109719       -2.4477948572
 O         2.7528575510        2.7728635181       -0.4838160682
 O         0.0877027714        4.9693459033       -1.6012177383
 C         1.5548300979        4.9604314285        0.7283998038
 C         3.3733114569        6.1698941569       -0.4488982250
 H       -14.7944519852        2.4812835501        4.0986158490
 H       -14.4296173326        3.3204713562        5.4975214339
 H       -14.2714803309        4.2034064690        4.0555707508
 H        -9.6039721667        1.4487096580        3.8473877054
 H        -9.6773354341       -0.2874084871        3.6246459952
 H       -10.7896464832        0.3489704250        6.1346720396
 H       -11.8924395594        1.3581174936        7.0215161084
 H       -10.6265509482        2.2006527717        5.8929201017
 H       -14.3513898706        0.8421002990        4.4136240295
 H       -13.4792420974       -0.5923675476        5.1133165644
 H       -13.9644716485        0.8688722860        6.0888392055
 H       -10.6485590983        0.1323968489        1.3666287810
 H       -10.2970535527        1.7168875998        1.4949278971
 H        -5.6901271719       -0.1791295222        0.9128557855
 H        -5.4651124129       -0.7083714212       -0.8190111991
 H        -9.1264642983       -1.8595595296       -0.3759268317
 H        -7.5690280498       -1.7184702978        0.4009978052
 H        -7.8560034165       -1.5219039497       -1.3862866965
 H        -9.2672025306        1.8813676294       -1.4396772606
 H        -9.2922930244        0.2771967194       -2.1301777616
 H       -10.4857082211        0.8041416413       -0.7974307231
 H        -4.4487572557        1.8572064056        0.3591753251
 H        -4.5932513504        1.7651950985       -1.3095498021
 H        -1.0860092349       -0.3386186338       -2.4901030723
 H         0.7289224078       -0.1653761275       -2.3564139522
 H        -1.6002504439        1.7616681987       -2.7870565761
 H        -1.0979714756        3.0312507504       -1.6046909033
 H        -2.8104545566        2.7522651403       -1.9425034497
 H        -1.0656441159        2.6156785765        0.7835636016
 H        -2.8394458852        2.7503207313        0.7539147836
 H        -1.8935269834        1.3069696893        1.6128052827
 H         0.5114505224       -2.0134003581       -0.4471424218
 H        -1.0308674932       -2.3921423871       -1.2151064301
 H         3.6557315974       -5.5457145590       -1.2945922158
 H         3.5601490422       -3.9276063904       -1.7634693108
 H        -0.6855034544       -5.9624392296       -2.4811136341
 H        -1.4525934731       -4.2315119078       -2.5931355995
 H        -0.8530670799       -4.9781201437       -1.0257223348
 H         1.0353305199       -4.3470821728       -4.4532900852
 H         2.4296253621       -5.0901649329       -3.6015520101
 H         1.0243782193       -6.0862997780       -3.8322793783
 H         4.7766546974       -4.0434626396        0.4059837993
 H         3.4003657816       -4.7249537792        1.2245572807
 H         5.2431738694       -0.5123596086        3.8675972944
 H         5.2933862373       -2.3480150965        3.7775580136
 H         0.9848279054       -2.5685050657        2.6279793400
 H         1.5582176874       -0.9067799633        1.9812540664
 H         1.7080904082       -1.4571868988        3.8227709638
 H         3.4235382867       -3.1930492314        4.3853972635
 H         2.5364820471       -4.2932167476        3.2907961894
 H         4.2128426110       -3.9689763195        2.9735659118
 H         7.0042078688       -0.5639301103        2.0698192411
 H         7.4700155569       -1.6121281620        3.4565585438
 H         7.0891020022       -3.2770162883       -1.8292120561
 H         5.5429409151       -2.6577989156       -1.1233611770
 H         9.2084201926       -0.6317005478        1.2939610160
 H        10.1861002532       -1.9134839524        0.7977045594
 H         9.2313013392       -2.0105822462        2.3076774807
 H         7.7870309741       -4.5126654024        0.4093468641
 H         8.7509053380       -3.8343598221       -0.9639931199
 H         9.4819136328       -3.9397700607        0.5887278681
 H         5.9054637915       -2.3241141525       -3.3926461476
 H         7.2050686544       -1.2799194256       -3.3576386367
 H         5.0912127953        2.7984067439       -2.6428998668
 H         4.2378465058        3.2809615552       -4.3263426947
 H         6.6931157171        1.1968171771       -4.0900026653
 H         5.6102332738        1.4589727733       -5.6464184760
 H         6.2866484284       -0.0068211989       -5.3537570556
 H         3.5568474937        0.0106592434       -5.7285493003
 H         4.3565669308       -1.5241250440       -5.0755675249
 H         2.8644156722       -0.5343312921       -4.2511077486
 H         2.9977219256        4.8019501221       -3.0595752451
 H         1.9323279071        3.4114238118       -3.2254529853
 H         1.4170662527        7.8102741006       -1.6965003657
 H         1.9776075002        6.8059981267       -3.1514402189
 H         0.3121963137        7.1001794795       -3.0021693840
 H         2.0583285286        4.3894290799        1.4575932662
 H         0.6024787437        4.3931358531        0.5646126882
 H         1.3734892808        5.9016030201        1.1360491762
 H         3.9952073992        6.2100323743       -1.3713336850
 H         2.8671824846        7.1480819165       -0.3453279648
 H         3.9075951309        5.8452704196        0.4163054523
 Na        2.7783545577        0.3563235081       -0.4986156327
