155

 C       -14.4369556462        2.9077750463        3.8907343944
 C       -12.9806204749        2.6409967386        4.3511176124
 C       -12.4280969020        1.1605140630        4.5057677871
 C       -11.5954157432        0.7320412436        3.1727703202
 C       -10.0439359343        0.8748743232        3.1810499340
 C       -11.5083043277        1.0342866921        5.7203235383
 C       -13.6596599202        0.2437742044        4.5476057239
 O       -12.2582529982        3.5965067135        4.5436754285
 O       -12.2185991378        0.2642812108        2.2350048811
 C        -9.5153982105        1.1578733889        1.7442671578
 C        -8.5096282546        0.1927019163        1.2771003849
 C        -8.2394854449        0.0165392915       -0.2778155432
 C        -6.8907496689        0.7453689392       -0.4766107500
 C        -5.6363995651       -0.0577366452       -0.7555344993
 O        -7.9496826549       -0.5314404934        2.0716318013
 O        -6.8711301247        1.9412748226       -0.7473320550
 C        -8.1659693034       -1.4435217323       -0.6944276560
 C        -9.3053715136        0.6684817881       -1.0947940606
 C        -4.4503126341        0.8500097985       -1.0961301715
 C        -3.0177000858        0.3070556308       -0.8391987950
 C        -1.8545692531        1.2828756624       -1.0576704826
 C        -0.4675030326        0.5702756405       -1.2808613162
 C        -0.3971294302       -0.4773424780       -2.4584105005
 C        -2.1019468602        2.1572833036       -2.3246837872
 C        -1.6662065814        2.1404614507        0.2018577676
 O        -2.8294124294       -0.8517864719       -0.3883360858
 O         0.4562924796        0.7988761851       -0.4888051549
 C        -0.0239136973       -1.8848941037       -1.8025523447
 C         0.5386223409       -2.8790647308       -2.7962494813
 C         0.6186999868       -4.4479017293       -2.4989574604
 C         1.2669581258       -4.5589563706       -1.0930239848
 C         2.7505874964       -4.2674981217       -1.0829493299
 O         0.8849955183       -2.4894656505       -3.9281405928
 O         0.6550101047       -4.7103634105       -0.0627573147
 C        -0.8477022251       -4.9872466598       -2.2555362574
 C         1.4211822760       -5.1565636687       -3.5544293930
 C         3.2542933998       -3.9287777921        0.3721271285
 C         3.0362215412       -2.4508550555        0.7790480199
 C         3.2854011149       -2.0881345340        2.3866950741
 C         4.3976591139       -0.9930937087        2.4685682415
 C         5.6901622681       -1.0659756876        3.4116829336
 C         2.0395516209       -1.2898230598        2.8147595519
 C         3.5420954395       -3.2756019441        3.2659130794
 O         2.5680820740       -1.7210100619       -0.0117294178
 O         4.2619126391        0.0366120342        1.7472764060
 C         7.0282978757       -1.2653211314        2.5558526742
 C         7.1441497999       -2.5077603534        1.7121596983
 C         8.3065138127       -2.7343358507        0.7729851128
 C         7.8466815094       -1.8311330986       -0.5012156766
 C         6.8165596220       -2.4942988941       -1.4209163322
 O         6.1194833856       -3.1545217085        1.6438911397
 O         8.2045469486       -0.6957953098       -0.6360599331
 C         9.6623578921       -2.3798315378        1.3082232821
 C         8.3515069178       -4.2673220981        0.4010879090
 C         6.3179940757       -1.6464857740       -2.5325298838
 C         5.2201618545       -0.6164560511       -2.3191320117
 C         4.6688113559        0.3083590074       -3.5331284885
 C         3.6396703433        1.3868698051       -2.9610134040
 C         4.1137292224        2.8342826616       -2.6646085549
 C         5.9639739872        0.9395854539       -4.1467410576
 C         3.8593380158       -0.5891685751       -4.6022235006
 O         4.7295753182       -0.5594982861       -1.1925696100
 O         2.4459761647        1.1938833318       -2.7891264576
 C         2.9471794338        3.8045504172       -2.5307269601
 C         2.5534139209        3.9737320578       -1.0165311000
 C         2.1354187399        5.3726359376       -0.4596328512
 C         0.9562602579        5.9181718782       -1.4059583298
 C         1.1715116316        6.9438576451       -2.5521593443
 O         2.5090184703        3.0342017379       -0.2751655672
 O        -0.2222303657        5.5639821489       -1.2255805409
 C         1.4669764859        5.1997897213        0.9668118818
 C         3.3050900848        6.3156280971       -0.3714874587
 H       -14.5875204009        2.5261507700        2.9501403181
 H       -15.1296615123        2.4836633487        4.6902064139
 H       -14.6327368774        3.9837660199        3.8176206434
 H        -9.7815217546        1.5465345730        3.9493473767
 H        -9.5881290691       -0.0481437062        3.2924247124
 H       -10.6270890118        0.4405556505        5.4088243305
 H       -12.0694694425        0.8578690246        6.6361767354
 H       -11.2793055621        2.0723947084        5.8726199707
 H       -14.3389993712        0.5716653227        3.7468939388
 H       -13.4510338117       -0.8341059665        4.3195663915
 H       -14.2289816256        0.2682348605        5.4922540339
 H       -10.4827971605        1.3842766749        1.1259615029
 H        -8.9937958009        2.1758283684        1.7924903966
 H        -5.2600298260       -0.5834326597        0.1391162501
 H        -5.8866225376       -0.7191455112       -1.5897132891
 H        -9.1254498389       -1.9509790696       -0.5878417695
 H        -7.4103947968       -2.0520333595       -0.2272851313
 H        -7.8424429759       -1.5380725597       -1.7610634666
 H        -9.1781713814        1.7390864596       -1.1812467309
 H        -9.3060647341        0.3071009327       -2.1255570296
 H       -10.3020238918        0.4373660912       -0.8204305022
 H        -4.7309791171        1.7744901280       -0.5728776533
 H        -4.5226375812        1.1387318080       -2.2156710572
 H        -1.2516988622       -0.4605465365       -2.9940743819
 H         0.4034138992       -0.2940844178       -3.2485072461
 H        -2.5241533712        1.7043050480       -3.1221134787
 H        -1.0479330949        2.4863139516       -2.6606240281
 H        -2.6882587466        3.0279195630       -2.0243152345
 H        -0.7680988798        2.7832417467        0.0520358507
 H        -2.4738407782        2.9104743091        0.1844768381
 H        -1.7919304435        1.5608046906        1.1075390416
 H         0.6913042229       -1.7851464718       -1.0255204033
 H        -0.9297317836       -2.2114674062       -1.3370833388
 H         3.3623780677       -5.1439710797       -1.4200807004
 H         3.0501027387       -3.5093965846       -1.7590638186
 H        -0.6989569890       -6.0078110253       -1.8181156549
 H        -1.2391902084       -5.2009598757       -3.2695612121
 H        -1.4006743196       -4.2376394616       -1.6649572357
 H         0.8384740348       -6.0114674674       -3.9711550439
 H         1.6375287770       -4.5069360808       -4.4499467803
 H         2.3673726752       -5.6256344740       -3.3023002240
 H         4.2836529036       -4.0793939424        0.5533509827
 H         2.7024187124       -4.6165795161        1.0149512097
 H         5.7478801167       -0.0200888584        3.6410993442
 H         5.6312711610       -1.8343714110        4.1758970579
 H         1.1816888402       -1.9942060394        2.7935476594
 H         1.9463429527       -0.3841832179        2.1490625087
 H         2.3897898447       -1.0133793847        3.8163091148
 H         3.6729053812       -3.0110307582        4.3762898446
 H         2.6407151802       -3.9767048703        3.1955180225
 H         4.3836084184       -3.8129322726        2.8802995986
 H         7.1270249348       -0.4029351594        1.8988603606
 H         7.9488714525       -1.1727009226        3.2706363699
 H         7.2892130651       -3.4583781201       -1.7933668983
 H         5.9444395814       -2.9548452652       -0.8789146536
 H         9.8237463968       -1.3336397125        1.2605769309
 H        10.3944676447       -2.8950228766        0.6727389731
 H         9.7935475673       -2.8146976363        2.2474888453
 H         7.2945918614       -4.5006936887        0.1320524136
 H         9.0230917103       -4.4582821828       -0.3924820649
 H         8.6115822759       -4.8377625793        1.3636850940
 H         5.9639623191       -2.3596021119       -3.3863444842
 H         7.2314220105       -1.1743088452       -2.9436281768
 H         4.6669885847        2.8921445547       -1.7398611723
 H         4.7466483732        3.1306847260       -3.4112646557
 H         6.7112436394        1.0426738981       -3.3381207666
 H         5.5758132119        1.9047715243       -4.5259129450
 H         6.3366297274        0.2241006895       -4.8537725749
 H         4.0346077108       -0.1775907400       -5.5590519728
 H         4.3386110871       -1.5586044217       -4.5054682510
 H         2.8157364377       -0.6011182743       -4.2421497712
 H         3.1091608137        4.8363426783       -2.9979415913
 H         2.0843315064        3.3490549623       -3.1399482780
 H         1.7173326909        7.8324946817       -2.2272634387
 H         1.7039379045        6.4297373116       -3.4271732283
 H         0.1371257395        7.0346044663       -2.8679423678
 H         2.1325038588        4.6227838049        1.6496199795
 H         0.5182642478        4.7621488056        0.9485601000
 H         1.3234936914        6.1773229756        1.4275234390
 H         3.7886317620        6.2129457853       -1.3174386846
 H         2.9035680588        7.2833077152       -0.2095178738
 H         3.9924623682        6.0974070794        0.5057308982
 Na        2.9225960269        0.7736519786       -0.1933699618
