155

 C       -14.7301608657        1.9577604914        3.1345840325
 C       -13.6184268553        1.5095034744        4.0941348473
 C       -12.6972655919        0.2535633986        3.7820397487
 C       -11.9770530067        0.5101516389        2.4559490760
 C       -10.5861395634        1.1204605600        2.5071725625
 C       -11.8634657649       -0.0725467903        5.0535786950
 C       -13.8586052381       -0.8821623823        3.6048020612
 O       -13.2591417028        2.1353206511        5.0534055646
 O       -12.5043260138        0.4492963972        1.3595790760
 C        -9.8461424956        0.9834976210        1.1589164368
 C        -8.9141446833       -0.3064850561        1.1254431699
 C        -8.1286157324       -0.4773101494       -0.3209982023
 C        -6.8749519095        0.4546224000       -0.2740086151
 C        -5.5098109263       -0.1860653321       -0.6049204966
 O        -8.5762953895       -1.0342960850        2.0406195612
 O        -7.0319605660        1.6565166497       -0.2445836553
 C        -7.6709110886       -1.9789744469       -0.6142498095
 C        -8.9587804714        0.1584382041       -1.4773731034
 C        -4.2963856016        0.7678904478       -0.5720760684
 C        -3.0983669687        0.3659065439       -1.4543481706
 C        -1.9104351212        1.5354778621       -1.5933681394
 C        -0.5198178942        0.8064145801       -1.4728846070
 C        -0.0853502153       -0.1763408279       -2.5326244322
 C        -1.8846429333        2.3242796764       -2.9790686717
 C        -2.0415060086        2.6575391859       -0.4426154087
 O        -2.8874523748       -0.7781283586       -1.8646886563
 O         0.1217968031        1.0387242864       -0.4598636561
 C         0.0333881223       -1.4507557324       -1.7445273789
 C         0.9002921748       -2.5751973058       -2.3256176266
 C         0.6865483236       -4.0875187272       -1.9698333513
 C         0.8258187626       -4.0470994257       -0.3891321516
 C         2.1211084123       -4.3862199671        0.3107523257
 O         1.8883934878       -2.2976007345       -3.0001286665
 O        -0.1862982783       -3.7076818349        0.2433719789
 C        -0.7626842792       -4.4446030014       -2.3690537459
 C         1.7827116496       -5.0592656065       -2.6313011470
 C         2.3411107537       -3.7509416041        1.6789245567
 C         2.4046813488       -2.2117386303        1.5361943687
 C         2.5523277998       -1.2743135048        2.7480278718
 C         3.8998617363       -0.4973488461        2.3904095375
 C         5.3877351968       -0.8728186216        2.8720065565
 C         1.3577010465       -0.2154622760        2.7230185538
 C         2.7060663958       -2.0617831754        4.0421719683
 O         2.3562416499       -1.7810819557        0.4065261090
 O         3.7668854400        0.3605058752        1.5587449039
 C         6.4571223917       -0.9419904202        1.7344549039
 C         6.5950748047       -2.1890214188        0.8728100987
 C         7.9952318321       -2.6167936158        0.4817585299
 C         8.3944830796       -1.6582383290       -0.9181715858
 C         7.8590596714       -2.2294294450       -2.2416081431
 O         5.6021281656       -2.8217441968        0.5404288398
 O         9.0233171775       -0.6913090161       -0.7367910550
 C         9.1237049260       -2.5386424274        1.6090707307
 C         7.9609456757       -4.1016356791        0.1444878889
 C         7.4135045531       -1.1838823208       -3.2443781291
 C         6.2536964291       -0.3199717980       -2.6220173861
 C         5.2163928366        0.4025714386       -3.4963829768
 C         4.3292979046        1.2200267731       -2.4727260197
 C         4.8478085474        2.4152997703       -1.6318426973
 C         6.1384148368        1.4123111116       -4.4450471169
 C         4.4494101317       -0.5437216090       -4.4670679642
 O         6.1973172766       -0.0111447414       -1.4234074771
 O         3.1517372636        0.8018978440       -2.3948614694
 C         3.8419048481        3.6969017639       -1.7913938524
 C         2.9608729751        3.7259537308       -0.4833112726
 C         2.4971287174        5.1667559618        0.1151350658
 C         1.5303608157        5.8625496546       -1.0034703754
 C         0.9296271357        7.2164125222       -0.6656055331
 O         2.7019567462        2.7411760174        0.2046084896
 O         1.2847656146        5.3135224348       -2.0474028620
 C         1.6296766877        4.7895345074        1.3320650233
 C         3.5767521212        6.1557279077        0.5427663580
 H       -14.6730817110        1.3800753663        2.2003797750
 H       -15.7258785834        1.7418416097        3.5036390719
 H       -14.6080214790        3.1170690734        3.1386924292
 H       -10.5679894650        2.1998671765        2.7440095172
 H        -9.8983319988        0.7544701324        3.2847931050
 H       -11.3186526055       -0.9988623637        4.9427112502
 H       -12.5196094526        0.0356574781        5.9049602654
 H       -11.1925295818        0.7905826408        5.3526562556
 H       -14.6836652990       -0.6852886206        2.9107840240
 H       -13.4885122292       -1.8581592088        3.2619152064
 H       -14.2912690722       -1.0485011044        4.5759669096
 H       -10.5144253781        0.8892088811        0.3568837963
 H        -9.3273434105        1.8403917427        0.9748938172
 H        -5.2504447461       -1.1829617766       -0.0686419765
 H        -5.5231622769       -0.6215856164       -1.5679457624
 H        -8.4197273704       -2.5797492284       -1.1238199622
 H        -7.4107266674       -2.3519007277        0.3981742688
 H        -6.7624767665       -1.9912051146       -1.2131772202
 H        -8.7925384275        1.2398408312       -1.4376093606
 H        -8.5463364349       -0.2016540253       -2.4402009780
 H       -10.0010467758       -0.2400943181       -1.4862138155
 H        -4.0413344868        0.8446540041        0.4072743232
 H        -4.5947018889        1.8112264542       -0.8389362862
 H        -0.8444193058       -0.3105986381       -3.4125900618
 H         0.8861138908        0.1157912673       -2.8359600549
 H        -1.8520954404        1.7432109334       -3.9284058911
 H        -1.0693982487        2.9987561572       -3.0179317431
 H        -2.8413635468        2.8499210376       -3.1273396432
 H        -0.9608371988        2.8239024317       -0.1971382590
 H        -2.4605059868        3.6429163928       -0.6979553189
 H        -2.4865200758        2.2125448630        0.4954232046
 H         0.5037212949       -1.2151313493       -0.8024190949
 H        -0.9296286438       -1.9150718215       -1.5238498193
 H         2.1293018419       -5.5254266649        0.3382003387
 H         2.9866654769       -4.1637240197       -0.3076830484
 H        -1.1310726101       -5.3147690161       -1.8019733599
 H        -0.8233687131       -4.8193083582       -3.4309410157
 H        -1.4887636139       -3.5941426696       -2.2142683797
 H         2.2703058414       -5.6138755658       -1.8082593098
 H         1.3191490940       -5.7736751524       -3.3659003335
 H         2.5167753059       -4.4774774587       -3.0383789507
 H         3.2487135769       -4.1237173891        2.1486768061
 H         1.5426643456       -4.0851399659        2.4208431504
 H         5.7756330825       -0.0221153274        3.5095143145
 H         5.2484784769       -1.7177017654        3.5148754737
 H         0.3886636088       -0.7605280843        2.7180874468
 H         1.4906846739        0.2779193948        1.7572955327
 H         1.5078184002        0.5606091997        3.5132432511
 H         3.0006433600       -1.3468081784        4.8387168995
 H         1.7719799502       -2.5414786455        4.3051356728
 H         3.5268739523       -2.8639753978        3.8468933743
 H         6.3483929816       -0.1519646854        0.9977608168
 H         7.3338407513       -0.7345097118        2.3806467708
 H         8.7657707116       -2.6509393828       -2.7532654313
 H         7.0110374034       -2.8719093951       -2.0618684836
 H         8.7495096204       -2.1772435971        2.5423639131
 H         9.9086809290       -1.9202950583        1.2705955667
 H         9.6423064779       -3.4458532058        1.8626792564
 H         7.3308649484       -4.4745553139       -0.6515477098
 H         9.0147959678       -4.4644874543       -0.1068992715
 H         7.6897421317       -4.7237830961        0.9699148180
 H         6.9516433758       -1.6218703135       -4.1812418370
 H         8.1178771006       -0.4125817732       -3.5549879571
 H         4.8118207388        2.2244292559       -0.5177942721
 H         5.8526159306        2.7706276903       -1.9821077505
 H         6.7546825068        2.0749977307       -3.7844218615
 H         5.5002938915        2.0298101985       -5.0751182687
 H         6.8859900095        0.8287417209       -4.9866988112
 H         4.5219204101       -1.5467213058       -4.0740432354
 H         3.4148141685       -0.4056284337       -4.6438391459
 H         4.8313963498       -0.5499283061       -5.5760258257
 H         4.4779013250        4.5716319907       -1.8165820826
 H         3.3887458231        3.6600482102       -2.7085267107
 H         0.4034471693        7.3405340089        0.3053536630
 H         1.6958172199        8.0017129080       -0.7817921100
 H         0.2280171082        7.4043645430       -1.5347507598
 H         2.2289588263        4.2956133593        2.0720505075
 H         0.7196317993        4.1974338812        1.1327453032
 H         1.2866644927        5.7043410080        1.7940043174
 H         4.2041586264        6.4390333697       -0.3268548356
 H         3.2669667800        7.0525410928        1.1041781619
 H         4.2859152134        5.7448198577        1.1993782469
 Na        2.3142637723        0.3712824048       -0.3596379748
