155

 C       -15.4353426636        1.3689129849        3.2467445515
 C       -14.1348284046        0.9860371847        3.9485037252
 C       -13.4436922430       -0.5290220788        3.5932485890
 C       -12.5374495083       -0.0228089896        2.3747543308
 C       -10.9311374483       -0.0337126556        2.4298737526
 C       -12.7656437671       -1.1302427623        4.7747887167
 C       -14.5250526727       -1.4971623244        3.0027881580
 O       -13.5861035557        1.7508662930        4.6760472767
 O       -13.1185997745        0.3638485160        1.3905943287
 C       -10.2751442840        0.2110307479        1.0918375243
 C        -8.7962339409       -0.3060396543        0.8478259863
 C        -8.1702578278       -0.5010502377       -0.5284697568
 C        -7.0141068298        0.5401247974       -0.6405753084
 C        -5.5654220468        0.1138269529       -0.8419565228
 O        -8.0386532547       -0.5058046733        1.8171699103
 O        -7.3387369713        1.6960132433       -0.5114817147
 C        -7.6777296143       -2.1108323094       -0.5635219147
 C        -9.0760575299       -0.1902683526       -1.7638886955
 C        -4.6260217906        1.3398187640       -1.1901506678
 C        -3.4940630391        0.7969053054       -2.0845277566
 C        -2.1407672738        1.6448374724       -2.0208820038
 C        -0.8680216587        0.8628783286       -1.6381041567
 C        -0.7055164065       -0.4218424930       -2.4133444254
 C        -2.0916741360        2.1537808033       -3.4385319620
 C        -2.2978799995        2.8941048988       -1.0822052538
 O        -3.6021700629       -0.1895036156       -2.7938402956
 O        -0.1506212538        1.1081635324       -0.6786428721
 C        -0.3314398165       -1.7058684292       -1.5249178805
 C         0.5016865738       -2.8439038233       -2.2858391293
 C         0.5237648752       -4.3740654703       -1.7521670129
 C         1.0433801218       -4.1733195136       -0.2758527905
 C         2.5517313950       -4.1881537983        0.2503932807
 O         1.2347580224       -2.5753038308       -3.2109357824
 O         0.1851558444       -3.8269174503        0.5462447537
 C        -0.9135589308       -4.9245763009       -1.8411338094
 C         1.5801726231       -5.1317071921       -2.6675239997
 C         2.6211219805       -3.4346047657        1.5880749868
 C         2.5616893923       -1.9499805913        1.4891036850
 C         3.1504499583       -1.1065168234        2.7274552657
 C         4.4852634127       -0.4619090322        2.0182812908
 C         5.8359662022       -0.1920785223        2.6813311905
 C         2.3029741436        0.1233497864        3.1792058463
 C         3.5338950124       -1.9832040356        3.8518230702
 O         2.1058563164       -1.4327557467        0.5068607799
 O         4.3899442223        0.1287779775        0.9534866773
 C         6.9228066825       -0.7804818568        1.7801573705
 C         6.5848956083       -2.2117547362        1.2857703028
 C         7.8746016943       -2.9572859727        0.4945584528
 C         8.5387441733       -1.8602027427       -0.4390326248
 C         8.1625513335       -2.1082695628       -2.0290927533
 O         5.5003188063       -2.7114442862        1.5155057568
 O         9.0766316996       -0.8767011083       -0.0347293842
 C         8.9353391629       -3.2153208414        1.5733576716
 C         7.4987239686       -4.3291386804       -0.2997491984
 C         7.9283531979       -0.8505132370       -2.8387769962
 C         6.6912016638        0.0555369347       -2.1975355141
 C         5.7100102261        0.8070626457       -3.2151628734
 C         4.5301416891        1.2640479736       -2.4081088131
 C         4.7075799728        2.3047312169       -1.2662370907
 C         6.2467161311        1.9951993658       -3.8916384248
 C         5.2062007146       -0.1416062163       -4.3334632726
 O         6.5643351323        0.1374733614       -0.9768007539
 O         3.3878942060        0.8041237200       -2.5569237464
 C         3.7535484602        3.5178180276       -1.4374500874
 C         2.9650581273        3.9417600197       -0.2458196069
 C         2.8496470371        5.3738746059        0.3279436062
 C         2.3362686907        6.3393529444       -0.7941965286
 C         0.8892424724        6.9699853420       -0.5734651858
 O         2.2327558362        3.1498284007        0.3553592333
 O         3.0313438174        6.5760502573       -1.7483647879
 C         1.8864722236        5.4243990350        1.5906567448
 C         4.2842315089        5.8962754106        0.6995874315
 H       -15.3855084642        1.1461633019        2.1591818892
 H       -16.1757577029        0.8618630154        3.7902618926
 H       -15.6871355825        2.4862445451        3.2761841181
 H       -10.6344547093        0.7710935337        3.1278090283
 H       -10.5742217747       -0.9652643528        2.9235780262
 H       -12.9714263600       -2.1885036863        5.0330539598
 H       -13.1469661468       -0.6572121519        5.7350660129
 H       -11.6457892313       -0.9361690901        4.8135314068
 H       -14.9277996295       -1.1217082501        2.0855018367
 H       -14.1633338844       -2.5172067447        2.8413231009
 H       -15.3284599373       -1.5412859385        3.6568473197
 H       -10.9657439709       -0.3649691714        0.3441783496
 H       -10.4289388561        1.2991268369        0.9234222774
 H        -5.1619768034       -0.2277135146        0.0539400490
 H        -5.4154226227       -0.5202109398       -1.7497022779
 H        -8.1331612324       -2.6710833733        0.1772559637
 H        -6.5884244048       -2.1885696430       -0.3670155449
 H        -7.9059336356       -2.5733047012       -1.5478508841
 H        -9.4406217864        0.8446663493       -1.6983154977
 H        -8.4508942806       -0.4316356383       -2.6758692687
 H        -9.9520080319       -0.8578004002       -1.6498273725
 H        -4.2891230967        1.7642661929       -0.1876390149
 H        -5.1897044684        2.1018977115       -1.6160673490
 H        -1.4243890878       -0.5272023015       -3.1645824473
 H         0.2281172842       -0.3429401124       -3.0525012070
 H        -1.7236881791        1.3874839463       -4.1559496011
 H        -1.4451872778        3.0068312732       -3.5775529881
 H        -3.1005243290        2.4625225411       -3.7674872002
 H        -2.1316322883        2.5058560523       -0.0746518804
 H        -1.5300699165        3.6909145024       -1.3190896559
 H        -3.3334817846        3.3960082615       -1.1422118925
 H         0.1918328437       -1.3463840163       -0.6374538652
 H        -1.2528644417       -2.2209417821       -1.1127323186
 H         2.8488356061       -5.2716723391        0.4236600962
 H         3.1561406962       -3.7259589254       -0.5217815941
 H        -1.0106499534       -5.9809136144       -1.9799704959
 H        -1.5178231057       -4.4679291091       -2.6857175715
 H        -1.5731760107       -4.7523575336       -0.9803319048
 H         1.6920614467       -6.1874593861       -2.4279662273
 H         1.0892483890       -5.0402788432       -3.6687576607
 H         2.5069238914       -4.6766027210       -2.6147337073
 H         3.5428806474       -3.8268189193        2.0507584937
 H         1.6951248368       -3.7844057007        2.1212796358
 H         6.0623548271        0.8705351597        2.7786942106
 H         5.7879384812       -0.6669299926        3.6621074241
 H         1.3564104543       -0.1275213541        3.7261530393
 H         2.0599918426        0.9089246431        2.4118241907
 H         2.9212132714        0.6831877549        3.9618570848
 H         4.3551312507       -1.5789154653        4.5255492719
 H         2.7799556919       -2.0361310573        4.6097445415
 H         3.8821171351       -3.0507448784        3.6617778521
 H         6.8938820702       -0.2314533739        0.8704890909
 H         7.8884090055       -0.7704573192        2.4351654826
 H         8.9206997151       -2.6770294981       -2.5693322874
 H         7.2625241431       -2.7368810220       -2.0575557540
 H         8.4474924836       -3.5810454808        2.4566060347
 H         9.4930698888       -2.3783567792        1.7678594501
 H         9.4822818413       -4.0212607580        1.1643036763
 H         6.6812286683       -4.2174815865       -0.9731398705
 H         8.3668071564       -4.6813405688       -0.9226489938
 H         7.3627053362       -5.1308277046        0.3969687959
 H         7.7446825704       -0.9828455583       -3.9210491479
 H         8.8531033641       -0.3246723866       -2.7737009089
 H         4.5691147030        1.7767121913       -0.2384850035
 H         5.7397082769        2.5432037602       -1.2404495042
 H         6.9330496021        2.5662129442       -3.2475457526
 H         5.5295637528        2.7110575620       -4.3748548415
 H         6.9146432893        1.7155006027       -4.7546396579
 H         5.4823664395       -0.0061488545       -5.3824289996
 H         5.3068300755       -1.2195383258       -4.2918735653
 H         4.0627701357       -0.0005014974       -4.3576156690
 H         4.2668312288        4.3713031790       -1.8424504443
 H         2.9914107016        3.3081471417       -2.1148593633
 H         0.2007998916        6.0817277205       -0.7464567658
 H         0.6425986981        7.2290183668        0.4471241891
 H         0.5706832935        7.6646371689       -1.3697871146
 H         2.1548161012        4.6945403240        2.2926305323
 H         0.8718508615        5.1250431928        1.2498415914
 H         1.9740672098        6.3913158354        1.9470001991
 H         4.9689442290        6.0630675937       -0.1329080399
 H         4.2368804035        6.8319639298        1.2032183831
 H         4.8696141343        5.2732392085        1.4247773894
 Na        2.1991320565        0.7589853069       -0.0622122164
