155

 C       -15.2167025994        1.3167037029        2.9351128132
 C       -14.1330021872        0.5624742136        3.7047734056
 C       -13.5858269936       -0.9149044440        3.2972561597
 C       -12.7043136587       -0.6818254243        2.0037763909
 C       -11.1791265213       -0.5534186995        2.0685469315
 C       -12.7416206092       -1.5693194745        4.4186502226
 C       -14.9641882427       -1.7531038517        3.0412075164
 O       -13.7199893042        0.9884144036        4.7612996823
 O       -13.3331408178       -0.3180034716        0.9970247978
 C       -10.5913690562       -0.2757137826        0.6214179001
 C        -9.0690165562       -0.4566753215        0.5386146031
 C        -8.2544313304       -0.5685017967       -0.7803282839
 C        -7.0524189098        0.4714757757       -0.6607978100
 C        -5.6039321207       -0.0795241096       -0.8221614033
 O        -8.4862427199       -0.5196518596        1.5809908269
 O        -7.2880776339        1.6446415741       -0.4838867590
 C        -7.7494226221       -2.0811465359       -0.9348670943
 C        -9.1521580739       -0.2617881227       -1.9879018788
 C        -4.5185633941        0.9592426150       -1.0843374288
 C        -3.4785278097        0.6444979462       -2.1145780779
 C        -2.1997239205        1.6871553438       -2.2933714562
 C        -0.8971975912        0.9292399599       -1.9235773587
 C        -0.5591433686       -0.3812525135       -2.6959529069
 C        -2.2107294173        1.9073967353       -3.8071822849
 C        -2.3770602295        3.0403847740       -1.5073089679
 O        -3.4039444968       -0.4032996198       -2.7194857550
 O        -0.0944429999        1.2629990085       -1.0814901239
 C        -0.5255954700       -1.6288747308       -1.7329812224
 C         0.0989497826       -2.8613313997       -2.4039096262
 C         0.0503889852       -4.2359390406       -1.6254018724
 C         0.7347709107       -4.0480556903       -0.0651508675
 C         2.2519264389       -3.8419293475       -0.0561184874
 O         0.7115894023       -2.7043610629       -3.4204162449
 O         0.1065820156       -4.0100964228        0.9520607308
 C        -1.4166413576       -4.6232425651       -1.4829866562
 C         0.8861867136       -5.3360440631       -2.4228714953
 C         2.6775102992       -3.3088378827        1.3387395090
 C         2.4737886593       -1.8286874207        1.5199160354
 C         3.2409494154       -1.1050400471        2.6711747662
 C         4.5252068833       -0.2289391221        1.9936815409
 C         5.9037265764       -0.2291806550        2.8039028953
 C         2.2919366946       -0.0511785895        3.2493367419
 C         3.7696660858       -2.0205641570        3.8381165999
 O         1.9464544677       -1.0834680770        0.7143727843
 O         4.3691801925        0.6104535655        1.1136275647
 C         7.0681437136       -0.6469181796        1.7774979001
 C         6.7799604305       -2.1191491894        1.3161742776
 C         7.9987168074       -2.9702759165        0.7794714604
 C         8.5206309070       -2.0919490231       -0.4511243901
 C         7.7317319676       -1.8394673626       -1.7927329283
 O         5.6190500946       -2.5757852114        1.3666109339
 O         9.6273567032       -1.5495837646       -0.3942463707
 C         9.0932971413       -3.0440284429        1.9155391172
 C         7.5322153424       -4.3200534188        0.1597712363
 C         8.0208048651       -0.4478546929       -2.4281719146
 C         7.0705377937        0.6436647227       -1.9802587963
 C         5.8556671385        1.0789542220       -2.9710357660
 C         4.5744363259        1.6093724783       -2.1968649933
 C         4.6324526414        2.9529592142       -1.3965243058
 C         6.4848237536        2.1439683910       -3.8918878200
 C         5.3978177567       -0.0307335116       -3.9675806583
 O         7.2025785858        1.1231109836       -0.8837067833
 O         3.5685393381        0.9401930069       -2.0606892475
 C         3.2542853905        3.5960765735       -1.3010614577
 C         2.8729997550        3.9707413077        0.1798555609
 C         3.1931165343        5.4353182378        0.5492841567
 C         2.8900642047        6.4047631202       -0.6340691735
 C         1.4919026019        6.6060222220       -0.9922458083
 O         2.3570093287        3.2312585653        0.9434500696
 O         3.8375776890        6.9573096882       -1.1920376520
 C         2.3985576521        5.7607917916        1.8501959232
 C         4.7048650736        5.4663506712        0.8907259064
 H       -15.1690984319        1.1854169766        1.8817873432
 H       -16.1944454935        0.7524039219        3.3051055208
 H       -15.1965413101        2.3472971344        3.2354502637
 H       -11.0345836473        0.3826321386        2.5693673283
 H       -10.5823602671       -1.2038457858        2.6303100280
 H       -12.6055839479       -2.5893230447        4.3175445510
 H       -13.2452111064       -1.3554935015        5.3303292100
 H       -11.7463357743       -1.1942786134        4.5647745566
 H       -15.3711604442       -1.6258659655        2.0090505860
 H       -14.7313478497       -2.8498331029        3.2422324833
 H       -15.6710291789       -1.4686069180        3.8144964929
 H       -11.0692989658       -0.8368861060       -0.1125725211
 H       -10.9852036892        0.7166915502        0.3116474682
 H        -5.4647017426       -0.6919457926        0.0789096888
 H        -5.6550572028       -0.9177360353       -1.5911348053
 H        -8.2357015914       -2.7739216283       -0.2444341809
 H        -6.7082275443       -2.0908535691       -0.5514973838
 H        -7.7181728395       -2.4892003463       -1.9587780318
 H        -9.6634973113        0.6425224746       -1.7516271785
 H        -8.7801706963       -0.1685122389       -3.0088814308
 H        -9.8657980386       -1.0743332502       -1.9632367611
 H        -3.8718410236        1.1676842577       -0.1959034974
 H        -5.1085825535        1.8791794107       -1.3128628297
 H        -1.2500560750       -0.6275393894       -3.5232024967
 H         0.4254973868       -0.2758737661       -2.9848048781
 H        -2.2347468691        0.9912684190       -4.2803135715
 H        -1.3449015583        2.5042095555       -4.1207721240
 H        -3.1941962573        2.3490560974       -4.1796712542
 H        -1.4140248246        3.4558719459       -1.2166417168
 H        -2.9336332503        3.7282649130       -2.0928935899
 H        -2.9030948266        2.9082588600       -0.6318225873
 H        -0.0948761238       -1.3936589482       -0.8332889122
 H        -1.5888230347       -1.8338126365       -1.5214507478
 H         2.7816368254       -4.8077035386       -0.3173786018
 H         2.3712600269       -3.1762843644       -0.8578959869
 H        -2.0797012289       -4.0129589191       -2.0434829760
 H        -1.8575774058       -4.4914902914       -0.4910382693
 H        -1.7635102150       -5.6077961053       -1.7747358361
 H         0.4655375881       -5.3715817998       -3.4524291919
 H         1.9973747891       -5.1379330182       -2.4551114466
 H         0.7846793964       -6.3578420617       -1.9435055311
 H         3.6244610170       -3.6762538042        1.5918422134
 H         1.9137756767       -3.7976238262        1.9688924228
 H         6.1556451172        0.7751909881        3.2990154860
 H         6.0056381500       -0.8748106124        3.6298981320
 H         1.3491990669       -0.4570816510        3.6100384345
 H         1.9244404485        0.7065395421        2.5822499060
 H         2.6740940627        0.4729689183        4.0898532610
 H         3.7592799428       -1.5421805493        4.7781212489
 H         3.1588055921       -2.8957170431        3.8652653367
 H         4.7414956040       -2.4549817037        3.7840935718
 H         7.0113359977        0.0339598338        0.8874905523
 H         8.0380612049       -0.5895224443        2.2330582218
 H         8.1229007785       -2.5590375177       -2.5962364158
 H         6.6668806779       -2.1306739327       -1.6669114225
 H         8.5601425197       -2.6558313833        2.7860651278
 H        10.0272738070       -2.4501415184        1.6177536047
 H         9.4521412981       -4.1055477663        2.0827637483
 H         6.8152483774       -4.1433463852       -0.6280587875
 H         8.4492823308       -4.8886740567       -0.1680795854
 H         6.9180177500       -4.7752761483        0.8970467581
 H         7.8397841547       -0.7381729309       -3.4757659819
 H         9.0022268277       -0.4137904159       -1.9866197940
 H         5.0417892499        2.7129297614       -0.3384509342
 H         5.4103770768        3.5737782046       -1.9488279328
 H         6.9839956200        2.9916120537       -3.3890127901
 H         5.9141899088        2.6112615053       -4.6498810692
 H         7.3167337648        1.6888701510       -4.3928775899
 H         5.2276154844        0.3341375946       -4.9916542021
 H         6.0063001433       -0.9618067498       -3.9017755613
 H         4.4706051227       -0.3636103016       -3.6778317103
 H         3.2214073170        4.5943784814       -1.8679915296
 H         2.4672895277        2.9976747241       -1.7094099811
 H         1.0786698799        7.2979293115       -0.2935026684
 H         1.4766857299        6.9010612942       -2.0958765922
 H         0.8015470403        5.8137677948       -0.8530844358
 H         2.7028823168        5.0845268705        2.6607054141
 H         1.3641586780        5.6913337194        1.5425806128
 H         2.6321259851        6.8577223822        2.0599340237
 H         5.1969893243        5.1462777706       -0.0437441406
 H         5.2207005454        6.3974322484        1.1637495677
 H         4.9628404798        4.7126591220        1.5766563065
 Na        2.0576100099        1.1432085543        0.0710568704
