155

 C       -15.0124511248        1.3222400575        2.7800179326
 C       -14.0196391334        0.3261334489        3.5802240951
 C       -13.5332127431       -1.1424703812        3.0677786179
 C       -12.6753414533       -0.7967086272        1.7709892085
 C       -11.1903939217       -0.6255941579        1.9004545593
 C       -12.6482760116       -1.7268667941        4.1475944474
 C       -14.8027532129       -1.9600400612        2.8922798251
 O       -13.5260892237        0.7491525818        4.5875705042
 O       -13.2404761985       -0.7417031904        0.6930807010
 C       -10.6340207747       -0.5153641178        0.3847806287
 C        -9.1069823184       -0.5426393511        0.5016567812
 C        -8.2319607434       -0.6279336636       -0.8649808386
 C        -6.9442326131        0.2476870512       -0.7134774175
 C        -5.5577116850       -0.3678793878       -1.0491591092
 O        -8.5621427289       -0.4743724671        1.5700832709
 O        -7.0792219532        1.4351795052       -0.4735526355
 C        -8.0314498632       -2.1045682133       -1.1036213569
 C        -8.9639941556        0.1091008708       -2.0522943900
 C        -4.5845515922        0.7763139206       -1.0784496422
 C        -3.2766953855        0.4568410053       -1.9094543042
 C        -2.1724004087        1.5414602016       -2.1119135785
 C        -0.8106426143        0.9555458501       -1.8221321831
 C        -0.1065532082       -0.3685963618       -2.4282490030
 C        -2.3280250693        1.8106913012       -3.6707858517
 C        -2.5647117680        2.8362156252       -1.3894053329
 O        -3.0870693591       -0.5890001782       -2.4985032575
 O        -0.1723467703        1.6026230688       -1.0126245603
 C        -0.5265026183       -1.5339858304       -1.6256358320
 C         0.0112142356       -2.8120425650       -2.2307465734
 C        -0.2812611271       -4.1632263942       -1.4619612422
 C         0.4508489460       -3.8940578117       -0.0795572405
 C         2.0660146679       -3.7608620894       -0.1436530308
 O         0.7755762508       -2.7906926259       -3.1974526894
 O        -0.2101400909       -3.7108251113        0.8996977163
 C        -1.7664484867       -4.6022532226       -1.2648884583
 C         0.3059282793       -5.3760151697       -2.2325290478
 C         2.5774582450       -3.3456469891        1.2374102363
 C         2.4850941513       -1.8453054715        1.4311936744
 C         3.1540839102       -1.1620841580        2.6358702886
 C         4.2596110438       -0.2101271334        2.0233000564
 C         5.6430694619       -0.2551979132        2.6218560926
 C         2.2135937866       -0.1202487645        3.3946466139
 C         3.7333073852       -2.1081038580        3.7469381515
 O         1.8374493240       -1.0866285414        0.6578677442
 O         3.8866395470        0.7110949920        1.2328703569
 C         6.6831259920       -0.5527087742        1.4995198807
 C         6.6433161178       -2.0109076276        1.1730150280
 C         8.0773832372       -2.7076725926        0.8671606102
 C         8.6633391533       -1.8645044343       -0.2973870532
 C         7.7097796385       -1.6198842065       -1.5207255625
 O         5.5893439197       -2.5892325381        0.9626777848
 O         9.7877442405       -1.4947102630       -0.3734555126
 C         8.9419768570       -2.8168571275        2.1356910937
 C         7.7902850322       -4.1472444505        0.3074836165
 C         8.0185893378       -0.2797484269       -2.3003730052
 C         7.1119112907        0.8488478109       -2.0307949926
 C         5.8504512017        1.0384362609       -3.0182585839
 C         4.6875684471        1.4215214416       -1.9586169673
 C         4.8235457815        2.8426138140       -1.1545105260
 C         6.1593524453        2.1219591986       -3.9696999687
 C         5.4668011984       -0.2279502520       -3.9211245734
 O         7.2749533643        1.5147472688       -1.0496063850
 O         3.7480051145        0.6838297179       -1.8006806895
 C         3.5917395129        3.7803661176       -1.2156231513
 C         2.9131861277        4.1139570478        0.1237057376
 C         3.3521774053        5.4686853605        0.7358769594
 C         3.0898884871        6.6280356199       -0.4276992209
 C         1.6680439023        6.8733485061       -0.8911479925
 O         2.3363702806        3.2623359871        0.7102749694
 O         4.0173229340        7.2536951509       -0.8507282551
 C         2.5440020627        5.7137069350        1.9725745311
 C         4.9366453132        5.4386887699        0.9620285549
 H       -14.8710901627        1.3094210814        1.7162628867
 H       -16.0465890901        0.9227584863        2.9122310313
 H       -14.8855206423        2.2474075835        3.2280906972
 H       -10.8381100305        0.3066094218        2.4092258656
 H       -10.6228324787       -1.3598602440        2.4458091300
 H       -11.8179361966       -2.3417112485        3.8238087647
 H       -13.1984746660       -2.4309476397        4.7791721564
 H       -12.1832166078       -0.9060530760        4.7016398699
 H       -15.5946225083       -1.2463090826        2.7105382350
 H       -14.6349688364       -2.6040737945        2.0281340926
 H       -15.0119102378       -2.5280547256        3.7929444571
 H       -10.9745380861       -1.2707817657       -0.1721490981
 H       -10.9334816744        0.3455515347       -0.2165478301
 H        -5.3019088276       -1.1331782981       -0.3004996338
 H        -5.6632643671       -1.0530534979       -1.9116275286
 H        -8.6057689657       -2.4712456962       -2.0098855133
 H        -8.3347363344       -2.8219162877       -0.3525203370
 H        -6.9845533419       -2.2072146554       -1.2826523222
 H        -8.9886727085        1.1985315879       -2.1247438306
 H        -8.5047913580       -0.2807942552       -2.9887372960
 H       -10.0144380230       -0.2170863115       -2.0696205509
 H        -4.3708074929        1.2467559746       -0.1024821435
 H        -4.9701649303        1.5754474543       -1.7762408473
 H        -0.3608175708       -0.5987793976       -3.5140131549
 H         0.9049074082       -0.3054973867       -2.1981436724
 H        -2.2760380970        0.7978813730       -4.1914649029
 H        -1.5991567577        2.5294275459       -4.0439859405
 H        -3.2915121605        2.2910339492       -3.7798209678
 H        -2.0621766878        3.7274383576       -1.9032883574
 H        -3.6681834948        2.9750702152       -1.4900509458
 H        -2.3385157208        2.8620112333       -0.3318256095
 H        -0.0801813623       -1.3902233360       -0.6676424002
 H        -1.6443117466       -1.6138912212       -1.5133503967
 H         2.3263491049       -4.7867961737       -0.5337086135
 H         2.3516437984       -3.1047220250       -0.8985925373
 H        -2.0616201078       -5.4944618790       -1.8695754740
 H        -2.6457335482       -3.9444175113       -1.4180007063
 H        -1.9060797825       -5.0346877368       -0.2327404586
 H         1.3523544716       -5.4108333231       -2.1017962551
 H        -0.1271540531       -6.2714266874       -1.9470815766
 H         0.0801676434       -5.4016030724       -3.3476503338
 H         3.4567208390       -3.8481776011        1.4821831562
 H         1.7817790857       -3.6627827466        1.9832470135
 H         5.8910053094        0.7916140666        3.0330414377
 H         5.8051287879       -1.0580563354        3.2743864588
 H         1.3034467819       -0.5054915255        3.7463224800
 H         1.8975487668        0.6950726410        2.8633235542
 H         2.6231622239        0.2370752642        4.2711517501
 H         4.0026767776       -1.5026313660        4.6084017949
 H         2.9541731927       -2.8469317659        4.0982046296
 H         4.5779725915       -2.6816588553        3.4486645728
 H         6.5676926824        0.1667050060        0.6905473577
 H         7.6072036171       -0.3462612457        1.8424065058
 H         7.7806246529       -2.5832431750       -2.1070655458
 H         6.6797830007       -1.4763041356       -1.2287473852
 H         8.5632415453       -2.3008975020        3.0269926507
 H         9.9356814287       -2.2821243312        1.9000521592
 H         9.1353501646       -3.8584706043        2.4119196621
 H         6.9107067499       -4.0754049182       -0.3972415497
 H         8.6846401800       -4.4564663847       -0.2669226915
 H         7.5430095697       -4.7594955989        1.1908983404
 H         7.8818029681       -0.6745639433       -3.3125739280
 H         8.9801972484        0.0802251554       -1.8137530956
 H         4.9947751326        2.3576975750       -0.1686027782
 H         5.7288754525        3.4066894679       -1.6058709502
 H         6.6702435645        2.9932614762       -3.5068191699
 H         5.3335739013        2.6206155778       -4.4244205274
 H         6.6358189514        1.7314268368       -4.8443500769
 H         4.6950596220       -0.7688086362       -3.4793158489
 H         5.0331057768        0.2152248894       -4.7937263705
 H         6.3406560841       -0.9316820221       -4.2191353084
 H         3.9587007473        4.7434840433       -1.7695032808
 H         2.7414742317        3.4066407611       -1.8015187793
 H         1.4725837899        7.9154182763       -0.7968025508
 H         1.7048022803        6.6074528902       -1.9522034842
 H         0.8332859259        6.3667514762       -0.4603754121
 H         2.7908245636        4.9365963006        2.7078810339
 H         1.5021126050        5.8093338594        1.8149788346
 H         2.9285027904        6.7594115281        2.2057198912
 H         5.5511781692        5.1777384892        0.0910810895
 H         5.3442785028        6.4025930379        1.3542692376
 H         5.1456644955        4.7059603189        1.6768265562
 Na        2.1101627296        1.1837950173       -0.3085262536
