155

 C       -14.3143290525        0.0370940871        2.5260020743
 C       -12.9246240157       -0.5237568943        2.4569169259
 C       -12.7100147896       -2.0505352052        2.1631419179
 C       -11.8537797731       -2.0474875979        0.7540528919
 C       -10.3317812862       -1.6097947123        0.6258170748
 C       -11.7680290534       -2.5863631427        3.2654471178
 C       -14.0199048009       -2.7936649194        1.9415763733
 O       -11.9578379757        0.1941868062        2.6455906642
 O       -12.4271436553       -2.3721323412       -0.2860528194
 C        -9.8978787276       -0.7885446126       -0.6355254565
 C        -8.4605629782       -1.2002178050       -0.8772024474
 C        -7.6820855639       -0.3069057412       -1.9541389038
 C        -6.6251356015        0.5984452227       -1.2214093292
 C        -5.6850367228        0.0048440237       -0.1669831930
 O        -7.8344101760       -2.0729914488       -0.2598929910
 O        -6.6410393051        1.7705051944       -1.5190849069
 C        -7.1316684495       -1.4532210199       -2.9361905866
 C        -8.6664704641        0.4967948169       -2.8379676349
 C        -4.3877265422        0.7450526318       -0.1848377931
 C        -3.8143950931        0.7744338885       -1.6037818911
 C        -2.5384069541        1.7477325239       -1.7593489842
 C        -1.0767845846        1.2006813351       -1.3924598032
 C        -0.4403269723       -0.0983563825       -1.9487552979
 C        -2.5891033398        2.4104636814       -3.1754998356
 C        -2.7932127375        2.9628953173       -0.7381727910
 O        -4.2610796549        0.2130715376       -2.5726753675
 O        -0.4141853640        1.8705040658       -0.6400359172
 C        -1.1302017506       -1.3067516193       -1.3590913113
 C        -0.5244883477       -2.6344769997       -1.8663662977
 C        -0.7671043541       -3.9294440192       -0.8324051410
 C         0.2060172740       -3.7265159590        0.3982363968
 C         1.7070146794       -3.9762015274        0.2015372021
 O         0.2017295564       -2.5837348316       -2.8001987418
 O        -0.1470006897       -3.4574053658        1.5409773392
 C        -2.1355173595       -3.9621584285       -0.1653277302
 C        -0.3778655708       -5.2246770466       -1.5385618020
 C         2.5391913664       -3.2841621994        1.3536801792
 C         2.4004993184       -1.7391688866        1.3743129117
 C         2.6434566347       -0.8064817543        2.7380344939
 C         3.8745985808        0.0636703153        2.3184810191
 C         5.2317943226       -0.0213084777        3.1289223797
 C         1.2733342734       -0.1221864239        2.9631537699
 C         2.8345656184       -1.7398192922        4.0034564373
 O         1.9318003652       -1.1853021255        0.4153143368
 O         3.8568489556        0.8666603251        1.3358105044
 C         6.3666583445       -0.0544304227        2.1273470206
 C         6.8312884985       -1.5001454377        1.8427017665
 C         8.2362521186       -1.8482738014        1.1553301469
 C         8.4706590631       -0.8103935852       -0.1106601177
 C         8.6996926734       -1.4537274369       -1.5108525802
 O         6.0991583795       -2.3806313226        2.2704070088
 O         8.3850505049        0.3641099162        0.0809584851
 C         9.3575800902       -1.7118107016        2.2004916342
 C         8.0853625363       -3.3540965688        0.7217101774
 C         8.1498314367       -0.3555931063       -2.4305895834
 C         6.5690396875       -0.1355702321       -2.0830394609
 C         5.7362793575        0.9694613358       -2.9596101765
 C         4.6744803328        1.5288720940       -1.9156054219
 C         4.8600813027        2.8931128203       -1.2013535329
 C         6.7044816620        2.1840438311       -3.5497829026
 C         4.9456715844        0.2228067525       -4.1668929873
 O         6.0527521868       -0.7661038886       -1.2210161213
 O         3.6046521663        0.9359936823       -1.9040401445
 C         3.4248840646        3.7282104287       -1.2018934787
 C         2.8797248115        3.9839997693        0.2078838468
 C         3.4027588334        5.1578803777        1.0299571397
 C         2.7359011113        6.4987425939        0.5219842814
 C         2.2284562755        7.5286328358        1.4950875552
 O         1.9342946849        3.3413884040        0.6364105031
 O         2.7537050418        6.7035513384       -0.6738507424
 C         3.0949651845        4.9724845451        2.5003840036
 C         4.9364551246        5.3388379183        0.8454867393
 H       -14.8394075863       -0.2030123660        1.6432681101
 H       -14.8418589518       -0.3611174700        3.3847137882
 H       -14.1933559201        1.0832606688        2.6278950160
 H        -9.8679683343       -1.2029955366        1.5128871035
 H        -9.8938129970       -2.5141258437        0.5297581722
 H       -11.6626829815       -3.6564813071        3.2250255580
 H       -12.0908079896       -2.2023744841        4.2308796424
 H       -10.7150060406       -2.2000198796        3.1077647169
 H       -14.9964113031       -2.4100205201        2.2400508579
 H       -14.2206691067       -2.9969019976        0.8529136511
 H       -13.9283804024       -3.7881929835        2.3655196990
 H       -10.6546098591       -1.0726185955       -1.4798745834
 H        -9.8969247078        0.3083262690       -0.4902457406
 H        -6.0636823668       -0.0115421528        0.9126000818
 H        -5.5329126306       -0.9987643290       -0.4260844667
 H        -6.4125823442       -1.1724879761       -3.6374822009
 H        -8.0070259908       -1.9694324308       -3.4039897227
 H        -6.7692617737       -2.2573213812       -2.2503514874
 H        -9.2681872176        1.0447139364       -2.1179784231
 H        -8.2272216744        1.2330931837       -3.5166697718
 H        -9.3309123325       -0.2211067362       -3.3606899747
 H        -3.6684216761        0.3925200503        0.5694150904
 H        -4.5653944787        1.8630000065       -0.0146238812
 H        -0.5552808737        0.0240319275       -3.0465675363
 H         0.5695012002       -0.0469457715       -1.7815370363
 H        -2.6523238362        1.5798022475       -3.9836890980
 H        -1.6743593677        2.8554845274       -3.3525069427
 H        -3.4782190058        2.9681754770       -3.2609696456
 H        -2.0586846405        3.7327818048       -0.7250413532
 H        -3.7528437784        3.4025869325       -0.9580893970
 H        -2.8785176208        2.5505009293        0.2178923724
 H        -0.9688674243       -1.1810303492       -0.2546887934
 H        -2.2018780661       -1.4047638900       -1.4702483026
 H         2.0133998860       -5.0212543830        0.1890550788
 H         2.0641855054       -3.4975373580       -0.7533892342
 H        -2.0677254847       -4.8250986006        0.3756231290
 H        -2.8343657339       -4.0747518822       -0.9778328131
 H        -2.3527307229       -3.1091599486        0.3929390245
 H         0.6153391558       -5.1971352044       -1.8396447501
 H        -0.3577480835       -5.9637603295       -0.8284651102
 H        -1.0010143255       -5.3619157902       -2.4375374872
 H         3.6265802361       -3.4727616437        1.2166271756
 H         2.2094693429       -3.6552322181        2.2931090760
 H         5.1813446198        0.9632520594        3.7266775431
 H         5.2448188332       -0.8382134027        3.7888722723
 H         0.4261400347       -0.8687613696        2.7468982953
 H         1.0323654286        0.8544223490        2.4320651227
 H         1.3013593625        0.1329064100        4.0860313643
 H         3.5787851553       -1.3247187959        4.7002468935
 H         1.8067955663       -1.9212294415        4.3470107665
 H         3.2490376792       -2.6650382814        3.6259491914
 H         6.0178719689        0.3024629362        1.1511850679
 H         7.2119980526        0.5659193379        2.5885240095
 H         9.7768243994       -1.6775586743       -1.4662235042
 H         8.1182914475       -2.3074666936       -1.8423350657
 H         9.4382373450       -0.7610107084        2.6433278029
 H        10.3284697319       -1.9748012644        1.7833749787
 H         9.2403425251       -2.5053504653        2.8953987179
 H         7.4553741132       -3.4941776050       -0.1131771986
 H         9.0779149082       -3.8519400010        0.6083565893
 H         7.6574402202       -3.9516695790        1.4935354534
 H         8.1285071636       -0.7991279152       -3.4056304866
 H         8.5950905645        0.5763343177       -2.2749705709
 H         5.1065245313        2.8708984274       -0.0750495998
 H         5.6608027104        3.4978532111       -1.6801618303
 H         7.2851188439        2.7238464776       -2.8013722873
 H         6.0685786890        2.8534562880       -4.1060414129
 H         7.4573092784        1.6994772298       -4.1667745718
 H         4.8780177135        0.7591343167       -5.0901667762
 H         5.5519855366       -0.6389761263       -4.2972241387
 H         3.9405285146       -0.1250438887       -3.7636077619
 H         3.6215852113        4.6784096981       -1.6498360564
 H         2.7239307550        3.1147084176       -1.8326027656
 H         2.6115436552        7.4051225771        2.4882956772
 H         2.3997475529        8.5525650229        1.1216954173
 H         1.1327065352        7.4449536284        1.6389358033
 H         3.3064046066        4.0483882062        2.8969556307
 H         2.0578507901        5.1287089914        2.6450849201
 H         3.6585609191        5.6210784322        3.2066336607
 H         5.1722659666        5.3919928947       -0.2121573496
 H         5.1022410526        6.2662760229        1.3226812798
 H         5.5042878382        4.5871952693        1.4422172696
 Na        1.9088260956        1.1811256584       -0.0919587579
