155

 C       -14.0248598352       -0.2269619276        1.9556558238
 C       -12.6447104993       -0.7677010371        2.3744893370
 C       -12.2871265925       -2.1980689398        1.9861319783
 C       -11.6120498912       -2.0517363053        0.5323388881
 C       -10.1354187775       -1.8119021857        0.3244614591
 C       -11.3083664136       -2.7752181352        3.0511059474
 C       -13.5105156332       -3.1171132339        1.8523355290
 O       -11.7679815237       -0.0984342925        2.8393967667
 O       -12.3073170018       -2.2643402949       -0.4583314438
 C        -9.7547431388       -1.1930226078       -1.0388875663
 C        -8.3124209355       -1.4230406563       -1.3777139669
 C        -7.6222530488       -0.3536508267       -2.2705879993
 C        -6.7099247979        0.5955741165       -1.4117342923
 C        -5.7376303251        0.0836300282       -0.3589769400
 O        -7.6713433606       -2.3491523920       -0.9833390285
 O        -6.9328214359        1.7844040637       -1.6675473268
 C        -6.6990910615       -1.2016596714       -3.1913746456
 C        -8.4346277232        0.5974846256       -3.1483185305
 C        -4.7039974845        1.1634366137       -0.2350362161
 C        -3.6198319287        0.8651602222       -1.3737601886
 C        -2.5617325071        2.0039475105       -1.7102790380
 C        -1.1718216753        1.3178041778       -1.4583840162
 C        -0.6778852230       -0.0084852624       -2.1288067730
 C        -2.9210352369        2.3351499566       -3.2239613180
 C        -2.6676783782        3.2268278603       -0.8434473807
 O        -3.6350013287       -0.1394292093       -1.9837926599
 O        -0.4079708899        1.8996411101       -0.6502106553
 C        -0.7898790533       -1.2252243629       -1.1475465860
 C        -0.3500835941       -2.6005033899       -1.6799629744
 C        -0.8715830092       -3.9347225427       -0.7383851841
 C         0.0662557184       -3.5671237667        0.4585287062
 C         1.5438690688       -4.0357837689        0.3005748846
 O         0.4754430884       -2.7561737464       -2.5234361011
 O        -0.2058231080       -2.7262263145        1.2797729335
 C        -2.3759230515       -3.9921663993       -0.4685441617
 C        -0.4221696580       -5.1938130725       -1.5611651586
 C         2.3435839366       -3.4189176968        1.4443288068
 C         2.3992242652       -1.8586828158        1.5030158207
 C         2.7688528787       -1.1307085069        2.8449450806
 C         3.8486994543       -0.1499500770        2.5219861327
 C         5.1801593283       -0.1280471217        3.3722954953
 C         1.4866603554       -0.3772851475        3.1685748959
 C         3.2011388004       -2.2552690004        3.8417066369
 O         2.1575175349       -1.2014532375        0.4774197420
 O         3.7010746985        0.6925267210        1.6804014450
 C         6.3529678305        0.0887885888        2.4457307149
 C         6.7049570180       -1.3298537393        1.8723616257
 C         8.2093820298       -1.6317177152        1.3701328612
 C         8.2158125785       -0.8595976703        0.0264271810
 C         8.0778193746       -1.5593220726       -1.3448154140
 O         5.8669269686       -2.1863645624        1.8520971022
 O         8.2448450840        0.3633710485        0.1371188015
 C         9.1987629595       -1.0116783126        2.4214581485
 C         8.3762771971       -3.1600120697        1.2483781882
 C         7.6120495951       -0.5577631435       -2.4680237499
 C         6.1528547853       -0.0569857893       -2.0815146170
 C         5.4842736562        0.9912186540       -3.0203545539
 C         4.3140605670        1.5727794687       -1.9896726927
 C         4.6290460239        2.6743296937       -1.0253339765
 C         6.4955488450        2.0627311824       -3.4250192582
 C         4.6335852337        0.2750614323       -4.1432961232
 O         5.5851443474       -0.4327781310       -1.1107358609
 O         3.1850564029        1.1200593831       -2.0532093271
 C         3.5201291458        3.7874771476       -1.0351810313
 C         3.0862555480        4.0777245843        0.3959317924
 C         3.5256352708        5.3075341012        1.1257613305
 C         2.5246996469        6.6138853590        0.5824007553
 C         2.2363278339        7.7160366588        1.5792664909
 O         2.4437451486        3.1748229661        1.0785828974
 O         2.0814795631        6.4801666301       -0.5258057248
 C         3.5605244423        5.0986156355        2.5957776052
 C         4.9315524344        5.8588219247        0.5861055682
 H       -14.1521283942       -0.4035649286        0.9451037614
 H       -14.8107604565       -0.8395957464        2.5402514291
 H       -14.1320020855        0.7789897731        2.2148356869
 H        -9.8218454417       -1.0880306236        1.1618803758
 H        -9.3497661693       -2.6838516629        0.5195378327
 H       -10.6234730040       -3.5984051413        2.6277332595
 H       -11.8269746021       -3.2481490460        3.9055330825
 H       -10.5392417641       -2.0639034728        3.2870638619
 H       -13.3446489433       -4.1736933733        2.0128855694
 H       -14.3130010372       -2.8773475622        2.4647114211
 H       -14.0096446037       -3.1028813458        0.8702551534
 H       -10.3573677261       -1.4572382323       -1.8891270782
 H        -9.7683426958       -0.0974185649       -0.8980461351
 H        -6.2060082085       -0.2435430843        0.5448117607
 H        -5.2680590182       -0.8699661268       -0.7112123976
 H        -6.1277731576       -0.6148334203       -3.8877168916
 H        -7.3109163863       -1.7699642019       -3.8157902067
 H        -5.9551959893       -1.6915551078       -2.5382308599
 H        -9.1099590458        1.2063789817       -2.5106139833
 H        -7.6742766486        1.2334311409       -3.5715440078
 H        -8.9428993228        0.1516882239       -3.9981907212
 H        -4.1375561034        1.1687366721        0.7575547719
 H        -5.2348128954        2.0549097686       -0.4375156260
 H        -1.0844852173       -0.1458404072       -3.0791876677
 H         0.4789957830        0.1013771603       -2.2109686567
 H        -3.6921578006        1.6006112373       -3.5226027152
 H        -2.2109503739        2.4221341864       -4.0645965755
 H        -3.4377486841        3.2946635942       -3.1314552782
 H        -1.8835985497        3.8952353471       -1.0204693764
 H        -3.6137760751        3.6759482846       -1.0058196782
 H        -2.5676904413        2.8563516393        0.1786151863
 H        -0.0562323070       -1.1310122086       -0.3727424320
 H        -1.7774811644       -1.3136654923       -0.7950768189
 H         1.6654107997       -5.1472622168        0.1926393338
 H         2.0182318096       -3.7247869155       -0.5972106704
 H        -2.5954330021       -4.7409407283        0.2661849907
 H        -2.9072008517       -4.1730288032       -1.3889823732
 H        -2.5695026034       -3.0490355341       -0.0304054398
 H         0.3255460144       -5.0108771905       -2.2327916905
 H        -0.1872664214       -6.0401125787       -0.9213367300
 H        -1.3269935848       -5.6007004202       -2.0339917675
 H         3.3511850466       -3.7150908249        1.3198134287
 H         1.9149733547       -3.8247142272        2.4037991399
 H         4.9554844593        0.7651243857        4.0597629288
 H         5.2076965819       -0.8642064290        4.0274810325
 H         0.5761442868       -1.0408933576        2.9769233827
 H         1.4303158411        0.5382256693        2.5029711287
 H         1.4550827791       -0.2196451628        4.2653505271
 H         3.1009774277       -1.9614604948        4.9176279169
 H         2.5860340801       -3.0908787007        3.9198315288
 H         4.1950231873       -2.6437760865        3.5650390280
 H         6.2599307135        0.8808187712        1.5764940897
 H         7.2630029460        0.4001876514        3.0047491885
 H         8.9620586666       -2.1797505369       -1.6389583155
 H         7.2298538449       -2.2592097860       -1.4687584308
 H         9.1655591470        0.0056073876        2.3628033665
 H        10.1677952452       -1.3276288025        2.2620926463
 H         8.7693973407       -1.2257304845        3.3808959544
 H         7.7727038375       -3.5632318435        0.4369234971
 H         9.3919299379       -3.4635265945        1.0813966899
 H         8.0411975532       -3.6566315782        2.1790224680
 H         7.5495653285       -1.2738081020       -3.4326851698
 H         8.2615977168        0.3319815902       -2.3628608686
 H         4.4825434959        2.1676333267       -0.0294447657
 H         5.6379066496        3.1449159319       -1.0962726461
 H         7.0675556237        2.5073253558       -2.6471128288
 H         5.9835870911        2.8669581908       -3.9885351950
 H         7.0998135817        1.6271164371       -4.2354493455
 H         4.1867898183        0.9709052347       -4.8082787183
 H         5.3006109631       -0.4060915406       -4.7984770649
 H         3.7774959378       -0.4165567078       -3.6971063957
 H         3.8125750977        4.7436817654       -1.5619831956
 H         2.7103374201        3.2576684807       -1.5860453050
 H         1.3364269748        7.5279007291        2.0520240014
 H         2.9066453738        7.5919707131        2.4463991877
 H         2.2706567805        8.6847387241        1.1977941163
 H         4.0855529056        4.1771853449        2.8334114115
 H         2.6030683499        4.9994689671        3.0872164683
 H         3.9593038547        5.9318366505        3.0762730902
 H         4.9663671434        5.9817190057       -0.4835073349
 H         5.0011734200        6.8395494979        1.0366524263
 H         5.6610004148        5.1413981652        0.9568525388
 Na        1.8339993254        1.0957485511        0.1539448848
