155

 C       -13.8612649191       -0.2877773326        1.7838741697
 C       -12.4853627215       -0.7648627122        2.2957754212
 C       -12.1138103536       -2.2920559191        1.8657718202
 C       -11.5181011773       -2.1921138503        0.3798372661
 C        -9.9571136474       -1.9336558220        0.2730235774
 C       -11.1002353501       -2.8894491525        2.8059866834
 C       -13.3217867480       -3.2696479843        1.7756256845
 O       -11.8474901915       -0.0704671776        3.0705044495
 O       -12.1742357721       -2.1153784900       -0.5925491560
 C        -9.6802819667       -1.2161736466       -1.0682166757
 C        -8.2150114413       -1.3524102722       -1.5002916463
 C        -7.6245494008       -0.3476490709       -2.4843592314
 C        -6.8679329258        0.7823208662       -1.5497450188
 C        -5.9925744604        0.1990616956       -0.3843754890
 O        -7.5309017201       -2.2056803355       -0.9204725853
 O        -7.1951296923        1.9274204622       -1.5725824575
 C        -6.4730128002       -1.0001558188       -3.3020528303
 C        -8.7204550108        0.1404087233       -3.4973438793
 C        -4.6651761280        1.0345160370       -0.1978286221
 C        -3.6138821223        0.7617318118       -1.3125159709
 C        -2.3861186984        1.8243869175       -1.6066230744
 C        -0.9918079831        1.2602276516       -1.4189773809
 C        -0.5691731402        0.0188361617       -2.1830791601
 C        -2.5775883939        2.2089395896       -3.0913156265
 C        -2.4723918918        3.1229113781       -0.6941927624
 O        -3.6692476634       -0.2558650553       -2.0165596134
 O        -0.2182487023        1.8078049267       -0.6798266518
 C        -0.7820459393       -1.1415331152       -1.1955137135
 C        -0.3513297237       -2.5584501888       -1.7407985814
 C        -0.7911230821       -3.8057943975       -0.8515255492
 C         0.1305514552       -3.5682439355        0.4096443390
 C         1.5761052985       -4.0464463744        0.3095560384
 O         0.4043633215       -2.6014895864       -2.7121471111
 O        -0.2874376960       -2.8929787763        1.3572843680
 C        -2.2889120670       -3.6853805018       -0.4833100749
 C        -0.3755818503       -5.0950113712       -1.5497608254
 C         2.5729875875       -3.4780816259        1.3441313720
 C         2.3213175725       -1.9673700017        1.5117451001
 C         2.8102171351       -1.2381146960        2.9547782295
 C         3.8284394525       -0.1909521408        2.6120820426
 C         5.1097139352        0.0815338198        3.4149704125
 C         1.4083097948       -0.5468284396        3.4154845972
 C         3.1385733153       -2.1527689760        4.0593977272
 O         1.8986528241       -1.3305824092        0.6015336015
 O         3.6960452880        0.4708240023        1.5676171434
 C         6.3564264808        0.1180879293        2.6076846647
 C         6.6691956364       -1.2854653364        1.9196380341
 C         8.1660588274       -1.5629296997        1.4986831795
 C         8.2455154818       -0.7955667548        0.0293890026
 C         7.8261000121       -1.5591666746       -1.2043030685
 O         5.7549240143       -2.0838577207        1.7440332349
 O         8.5110160569        0.4069725995        0.0129868225
 C         9.3027481731       -0.9143926951        2.3652321066
 C         8.3445433866       -3.0891120037        1.4073905112
 C         7.3071171993       -0.6621705637       -2.3945865313
 C         5.9712647861       -0.0787926051       -1.9850607207
 C         5.3117244103        0.9021857519       -3.0628919100
 C         4.1044968157        1.5750209059       -2.1261430564
 C         4.5316145965        2.5806728023       -1.0372372101
 C         6.1732648941        2.1041443388       -3.5789022269
 C         4.7669184241        0.1899468887       -4.2002778913
 O         5.3223474581       -0.4532241463       -0.9996938002
 O         2.9538362760        1.1724601366       -2.1253391471
 C         3.4762300485        3.7466352577       -0.8579884123
 C         3.0952929187        4.0254909559        0.5759807819
 C         3.5928783225        5.4315170738        1.1676098464
 C         2.5235498450        6.4904135067        0.6537972622
 C         2.1618829523        7.7653908900        1.5577741522
 O         2.4031685522        3.3781974581        1.2495830850
 O         1.9227215152        6.2414363747       -0.3966546918
 C         3.6187664509        5.3245841354        2.6990235208
 C         4.9450075067        5.9392637023        0.6212396155
 H       -14.1160418269       -0.7588809178        0.7678929150
 H       -14.5665128250       -0.6073167036        2.4945695499
 H       -13.8912804517        0.8404697000        1.7513336027
 H        -9.6749236268       -1.2773927713        1.0346826502
 H        -9.4694692109       -2.8259070267        0.5389822419
 H       -11.0371217675       -3.9720571108        2.7673305983
 H       -11.2799014223       -2.7018530160        3.8834529212
 H       -10.0783244996       -2.5608003613        2.5362715453
 H       -13.1802691598       -3.8643805271        0.8935473146
 H       -13.5545783560       -3.9393812419        2.6175854070
 H       -14.2968176890       -2.8931615717        1.6303059735
 H       -10.4010444936       -1.6310829600       -1.8033990776
 H       -10.0053930963       -0.1936465653       -0.8904275174
 H        -6.5616386668        0.2403874028        0.5633906179
 H        -5.7502483446       -0.8733376820       -0.4155666160
 H        -5.8721424675       -0.1451807790       -3.7063031392
 H        -6.8854974234       -1.5126454373       -4.2139979237
 H        -5.7704900626       -1.5344649588       -2.7145151826
 H        -9.4599852591        0.6657126204       -2.9336735460
 H        -8.3913191697        0.7202375825       -4.3654444431
 H        -9.2462912919       -0.7615979525       -3.8098630043
 H        -4.2016863318        0.7543213690        0.6932890125
 H        -4.9324206529        2.1140971687       -0.2371229443
 H        -1.0931147652       -0.1611802591       -3.1819558063
 H         0.4882144179       -0.0256394884       -2.3016465629
 H        -2.6698143668        1.3743583909       -3.7096884033
 H        -1.6422572299        2.7920376137       -3.3539835462
 H        -3.3330101362        2.9971550174       -3.2849558510
 H        -1.8825641125        3.9652086383       -1.1730937852
 H        -3.5341874427        3.4382482447       -0.6950636595
 H        -1.9922759759        2.9753321177        0.2723802443
 H         0.0106360580       -1.0716566710       -0.4136589184
 H        -1.8518662145       -1.1760865265       -0.8240978579
 H         1.5899873290       -5.1067284647        0.3557347593
 H         1.8841369075       -3.8895115369       -0.7730332830
 H        -2.5470246044       -4.6821709215        0.0047345812
 H        -2.8697889839       -3.6140630022       -1.4225351159
 H        -2.4565735805       -2.8900260326        0.2972753872
 H         0.7115947101       -4.9247169145       -1.9399966008
 H        -0.5822870538       -5.9959059907       -0.9517192711
 H        -0.9857733864       -5.3679148616       -2.3909045179
 H         3.6850580033       -3.5916439473        1.1074948842
 H         2.3427860302       -4.0298847523        2.2245203082
 H         4.8897034616        0.9921065341        3.9035846650
 H         5.0768008638       -0.6917654090        4.2823338038
 H         0.6429491849       -0.9495572816        2.8528843080
 H         1.4792355431        0.4752477489        3.2457785019
 H         1.1828376890       -0.7745723321        4.4159205265
 H         3.4218994956       -1.6992534810        5.0005977461
 H         2.2716845946       -2.7575767236        4.4669133809
 H         3.9322559581       -2.8751036734        3.7812738554
 H         6.3848811526        0.7678781283        1.8016827258
 H         7.2059867731        0.4903455075        3.1558860827
 H         8.6849151372       -2.1838056028       -1.4065498569
 H         7.0183244766       -2.2953067101       -1.1847733493
 H         9.2274980676        0.2304702072        2.2830743799
 H        10.2438536716       -1.1687545772        1.8370724018
 H         9.2029367184       -1.2006120342        3.4113792190
 H         8.0074435652       -3.5409289504        0.4554221680
 H         9.3928533130       -3.4173921405        1.4747950625
 H         7.7957128152       -3.4763161258        2.2542021583
 H         7.1960692528       -1.1911781937       -3.2167118673
 H         7.9539731809        0.1883060015       -2.3787058479
 H         4.5487971533        2.0221880902       -0.1481847689
 H         5.4807762232        3.0450404857       -1.1559020050
 H         6.8728073184        2.5703519032       -2.7971310876
 H         5.6176600299        2.8928123157       -4.1121299504
 H         6.7789859891        1.6782653426       -4.4008861806
 H         5.1514652100        0.7032794763       -5.1482275679
 H         5.1308070108       -0.8211720988       -4.2549970532
 H         3.7414490874        0.1375614975       -4.2556143375
 H         3.6835571344        4.6655383339       -1.3757543906
 H         2.5839532888        3.2849126479       -1.2840413932
 H         1.0641922602        8.0299037951        1.4582841725
 H         2.2733651101        7.6544170459        2.6076665482
 H         2.7179135217        8.6313886256        1.1501330684
 H         4.0616404206        4.3785993782        3.0624316944
 H         2.6349380887        5.4076551333        3.1933052379
 H         4.1057727090        6.2391290809        3.0936802886
 H         4.8081945727        6.3242944574       -0.4045322014
 H         5.1256620560        6.7886320512        1.3103538663
 H         5.7252233654        5.2004939349        0.6812061507
 Na        1.9163682176        1.3030468954        0.0957185618
