155

 C       -12.9945948987       -0.9730050615        1.9881836252
 C       -11.6300768358       -1.7666819781        2.0828985975
 C       -11.3869125852       -2.9775930631        1.1306645949
 C       -10.8657118875       -2.2962575474       -0.1984139533
 C        -9.4112889160       -1.8310685375       -0.2517987763
 C       -10.2298740407       -3.9644355710        1.5832863821
 C       -12.7288113896       -3.8228493381        0.9264690070
 O       -10.7272446101       -1.2519157116        2.6701831639
 O       -11.6057952201       -2.2318300747       -1.1698762089
 C        -9.1093144940       -1.0648031803       -1.5232677164
 C        -7.5967932629       -1.2156049552       -1.9071942338
 C        -7.0959037986       -0.3713093888       -3.1355267319
 C        -6.4448425805        0.9989321022       -2.6406839813
 C        -5.8516990225        0.9548600856       -1.2236116154
 O        -6.8334891162       -1.9131988955       -1.2310216721
 O        -6.5411026333        1.9452773835       -3.3306115270
 C        -6.0313916393       -1.2612895063       -3.8587304037
 C        -8.2387994184       -0.0905065141       -4.0626983139
 C        -4.7295894200        1.9496191196       -1.0392924117
 C        -3.3904628820        1.4840823266       -1.5275867647
 C        -2.0736140715        2.3324812546       -1.2852709970
 C        -1.1429091388        1.2337653493       -0.6999200877
 C        -0.5556071771        0.1141169063       -1.5506747536
 C        -1.8517402384        2.9554108624       -2.6428155527
 C        -2.1080691785        3.5157760010       -0.2163013974
 O        -3.2506724547        0.4480305039       -2.1580404947
 O        -0.8147825387        1.2782464878        0.5426267517
 C        -0.8984310004       -1.2665609753       -1.0511924761
 C         0.0447397172       -2.3115239663       -1.5524574570
 C         0.0043489654       -3.7716506988       -0.9942131240
 C         0.8489364098       -3.8266692915        0.2622089765
 C         2.4229856606       -3.7429230848        0.2234000685
 O         0.9133869488       -2.1072434549       -2.4135840218
 O         0.3225053059       -3.9161781585        1.3538834913
 C        -1.5106501812       -4.2359938063       -0.8149935825
 C         0.5919348115       -4.7872660074       -2.0388178779
 C         2.9003829373       -3.2765904906        1.5491821189
 C         2.3353999936       -1.8949706748        1.7809264752
 C         2.5185396636       -1.2777012814        3.2532817415
 C         3.5825665158       -0.2814364928        3.0359076794
 C         5.0180649640       -0.2634246824        3.7866789063
 C         1.2353927155       -0.5287709517        3.7077031417
 C         2.9030812771       -2.4357695715        4.1891149423
 O         1.7650228175       -1.2268703376        0.9971194117
 O         3.4259153511        0.7268322912        2.3415192022
 C         6.1058974172       -0.0945103332        2.6746334708
 C         6.6895212022       -1.4455719208        2.2013266670
 C         8.0234910126       -1.3949704242        1.4153047474
 C         7.7388267421       -1.0018726110       -0.0708682586
 C         6.7125465326       -1.7949485395       -0.8192419898
 O         6.1028023443       -2.5277815841        2.3902391969
 O         8.2058335037        0.0039025541       -0.6008904937
 C         9.1483056051       -0.4006591697        1.9610608606
 C         8.6434249877       -2.8646951211        1.3069207677
 C         5.9319824032       -1.1413488166       -1.9189215780
 C         4.8404341066       -0.0793646348       -1.3874581201
 C         4.0875231695        0.6657024767       -2.5091246103
 C         3.2183076297        1.6933072180       -1.6247285459
 C         3.9842797522        2.9165780935       -1.0315926160
 C         4.9806658375        1.5033069569       -3.5447513315
 C         3.1750599980       -0.3020213295       -3.2873559825
 O         4.6963628720        0.0395211389       -0.1887324919
 O         2.0128706794        1.5287073276       -1.3303099947
 C         3.1132082782        4.1493497447       -0.7971770650
 C         2.6436995289        4.4074534839        0.7018650059
 C         2.9095178133        5.7530513104        1.2963858359
 C         1.8087442307        6.7234589307        0.5868239517
 C         1.9727680075        8.2564756201        0.8448555139
 O         2.0571547664        3.5123550723        1.3599603566
 O         0.9382254080        6.3138888597       -0.1294444505
 C         2.6316266749        5.8683381988        2.7961610270
 C         4.3497780986        6.3490944352        0.9245679686
 H       -13.2445669083       -0.8126185269        0.9516939244
 H       -13.8235884303       -1.4024677287        2.5204398329
 H       -12.8104680893       -0.0033422785        2.4942680145
 H        -9.1411993044       -1.1542656958        0.7072921065
 H        -8.6665016420       -2.6999332282       -0.0527455000
 H       -10.1358695747       -4.8268548762        0.9268569516
 H       -10.5191687513       -4.2517497355        2.5808423523
 H        -9.2902152292       -3.4074317750        1.5083610054
 H       -13.5302940553       -3.0484923973        0.7938385841
 H       -12.7486406170       -4.5067152045        0.1051922897
 H       -12.8039144740       -4.4797446452        1.8461329341
 H        -9.6784584887       -1.6021726142       -2.2231838145
 H        -9.3962802570       -0.0023309993       -1.4190293854
 H        -6.7017665057        0.9716228665       -0.6294107738
 H        -5.3507078190       -0.0625368266       -1.2411534477
 H        -5.6767202871       -0.7312244102       -4.7419372795
 H        -6.5880895444       -2.0641242623       -4.2735162769
 H        -5.0667830796       -1.4693029062       -3.2858238797
 H        -8.7314164607        0.8885654641       -3.9340710102
 H        -7.7805061685       -0.0084107606       -5.0546585407
 H        -9.0127123414       -0.8196503283       -4.2418142025
 H        -4.6655901011        2.4751765254       -0.1016863305
 H        -4.9338580945        2.9022008815       -1.6589990456
 H        -0.7986992633        0.1649012640       -2.6196036228
 H         0.5740318589        0.2202487548       -1.5520371692
 H        -1.9702818327        2.1666204607       -3.4650095555
 H        -0.8529428617        3.2927280218       -2.7633052671
 H        -2.4789319769        3.7942481623       -2.7424177969
 H        -1.2455510866        3.5006046913        0.4373924664
 H        -2.1596490023        4.5575604622       -0.5515550422
 H        -2.9604162836        3.3144500999        0.4840243419
 H        -1.0551857865       -1.4626868381       -0.0344414728
 H        -1.9183809036       -1.5151149597       -1.4771981503
 H         2.8182790979       -4.7490148744        0.0147635678
 H         2.6604282842       -2.9771367106       -0.5561716147
 H        -1.7721673958       -5.2980299216       -0.8438853384
 H        -2.1429234588       -3.7154307227       -1.6383377134
 H        -1.9497451822       -3.9650450034        0.1690062703
 H         1.5750521100       -4.6052353215       -2.4509096030
 H         0.5032215920       -5.8283105480       -1.6649234489
 H        -0.1084079332       -4.8995099501       -2.9525361229
 H         4.0132292527       -3.3687910270        1.6548497793
 H         2.5737555793       -4.0144802914        2.2834833420
 H         5.0039150708        0.4995037658        4.5186903527
 H         5.1821712144       -1.2994093930        4.3548592756
 H         0.9413821094       -1.0773439457        4.5508684719
 H         0.5164930138       -0.6122357674        2.9467048968
 H         1.3045537998        0.4690894285        3.9970896740
 H         2.9902693487       -2.2688042546        5.3104400627
 H         2.1362367728       -3.1835599149        4.2574137118
 H         3.7319834628       -3.1190033369        3.9871526319
 H         5.5044094781        0.3030709430        1.7266457586
 H         6.9031541599        0.6054109592        3.0360482092
 H         7.2725891679       -2.5611371742       -1.3182213982
 H         6.0102613902       -2.2466005184       -0.0423192637
 H         8.9419995864        0.7031263433        1.8866711842
 H        10.1976633211       -0.6344610059        1.5279357527
 H         9.1325190770       -0.5357547567        3.0772912259
 H         8.0173197994       -3.5839033170        1.7990734289
 H         8.8872814318       -3.1323330402        0.2827914464
 H         9.6378885554       -2.7760578562        1.7678463072
 H         5.5111607967       -1.9678197215       -2.6593693708
 H         6.4666542717       -0.5967566643       -2.6691857313
 H         4.4329552331        2.4291591802       -0.1220411326
 H         4.7945047300        2.9867664647       -1.8195044895
 H         5.8071716712        2.0179646712       -3.0734415573
 H         4.3660079565        2.1846121632       -4.1857094623
 H         5.4159463686        0.7538237237       -4.2628881218
 H         2.4846510780       -1.0661406293       -2.8205956919
 H         2.5922504864        0.1773872894       -4.0044139711
 H         3.8241721802       -0.8673520573       -3.9140008475
 H         3.8187763189        4.9761265298       -0.9395725126
 H         2.3125714910        4.1840319032       -1.4495752571
 H         0.9355062848        8.7267850169        0.9663619036
 H         2.5151052608        8.5309572583        1.7594508350
 H         2.4310968974        8.7298038131       -0.0964993165
 H         3.1588234181        5.0975715930        3.4048394570
 H         1.5462123040        5.7346023249        2.9246966238
 H         2.8577893062        6.9129345257        3.1021876607
 H         4.2518953451        6.7699076356       -0.0827549609
 H         4.7168222537        7.0483916195        1.6912187286
 H         5.1541756455        5.6090073134        0.8734752310
 Na        1.5639457752        1.2466753229        0.9602203030
