155

 C       -12.8462781139       -1.4343468758        2.5074293313
 C       -11.4315030386       -1.9723084212        2.0677564479
 C       -11.2891816399       -3.1867670617        0.9645508415
 C       -10.7743768634       -2.4528305623       -0.3796201317
 C        -9.4056740493       -1.8056851104       -0.4208331979
 C       -10.3256707769       -4.2111428545        1.5699104400
 C       -12.7331908827       -3.8197796844        0.7233952507
 O       -10.4276874967       -1.4270821651        2.4589646390
 O       -11.4918073312       -2.5004891281       -1.3227733891
 C        -9.0847536551       -1.0020095749       -1.7248129727
 C        -7.5779451120       -1.1636698804       -2.1834458132
 C        -6.9453855135       -0.3512161613       -3.3773108697
 C        -6.1762411644        0.9903676725       -2.9325452777
 C        -6.0766604540        1.1393055221       -1.3494437067
 O        -6.8671741645       -1.9035464257       -1.4519865798
 O        -5.7369554020        1.7986872460       -3.6884292599
 C        -5.8582230906       -1.2075580034       -4.1039806021
 C        -8.1258646445        0.0883345022       -4.3385649950
 C        -4.8443973631        1.9906712426       -0.9433748678
 C        -3.5951626895        1.5203544319       -1.5979742552
 C        -2.1357514564        2.2862158419       -1.1908094742
 C        -1.0799818896        1.2562449791       -0.8135857640
 C        -0.8123841803        0.0455332772       -1.7566093677
 C        -1.4096649658        3.0042328401       -2.4130382645
 C        -2.3447285491        3.1805979937        0.0719326570
 O        -3.6101223416        0.4847886048       -2.2364654308
 O        -0.4302682463        1.4511905364        0.2531918577
 C        -0.5941789771       -1.3197773851       -0.9946784568
 C         0.2100713201       -2.4369992609       -1.6097099946
 C         0.0696429638       -3.9451279750       -1.0054532475
 C         0.8068828177       -3.8279403871        0.4399059397
 C         2.3652462315       -3.8774175671        0.2922486018
 O         1.0729742028       -2.1647435725       -2.4320478807
 O         0.2847411706       -3.5925827682        1.4886250221
 C        -1.3596147651       -4.3608832150       -0.6892917401
 C         0.6608511380       -4.8260903479       -2.0545244167
 C         2.9791607773       -3.3026379769        1.6148948303
 C         2.3364995483       -1.8285145177        1.9443145653
 C         2.4289458894       -1.3206111495        3.4257475340
 C         3.4593801317       -0.1127978081        3.3278069287
 C         4.9120554819       -0.3617996286        3.7283359684
 C         0.9659800946       -0.7468535470        3.7375547676
 C         2.8288732047       -2.4794836865        4.4276466747
 O         1.9753629366       -1.1874664544        1.0347253706
 O         3.0336473348        0.9604027484        2.9863495197
 C         5.9412175376       -0.2073065276        2.5045466558
 C         6.6640349087       -1.5092612400        2.1700492983
 C         8.0043205705       -1.5205515328        1.3077250920
 C         7.6457176375       -1.1679193996       -0.1977949840
 C         6.5906476846       -1.9489390861       -1.0344055662
 O         6.1674662882       -2.6001852013        2.4628961145
 O         8.0643558590       -0.1428483619       -0.6779379333
 C         8.9849236047       -0.4444330890        1.7538479014
 C         8.6451409314       -2.8821619443        1.4655215643
 C         6.0007594623       -0.9914820886       -2.0715623255
 C         4.7692574839       -0.1105188037       -1.4159109110
 C         3.9984234883        0.9113408061       -2.3388154585
 C         3.2982711414        1.8451394898       -1.4236136785
 C         3.9190702030        3.0800824328       -0.6651109655
 C         5.0831472858        1.6366384253       -3.2444537623
 C         3.0577256207        0.1822736370       -3.2990657625
 O         4.5161486575       -0.2338714579       -0.2735595671
 O         2.1200306027        1.5689885657       -1.2138362714
 C         2.8158637655        4.2127580611       -0.6742881469
 C         2.5552984160        4.5324555965        0.8578932574
 C         2.6710401075        6.0974139650        1.3589685946
 C         1.7763547694        6.9626964882        0.3466460313
 C         1.6261760330        8.4369030790        0.8015164726
 O         2.1679899529        3.6313578308        1.5719919784
 O         1.1226573258        6.3904260691       -0.5274452956
 C         2.2293300365        6.2236058042        2.8134469334
 C         4.1166800209        6.3493241784        1.1526428351
 H       -13.4895292460       -1.0812926276        1.6290935513
 H       -13.3924338364       -2.1061760627        3.0804838532
 H       -12.5911533344       -0.5557126271        3.1969510536
 H        -9.3382210889       -1.0727821937        0.4768906281
 H        -8.5098155970       -2.5685835844       -0.3578280027
 H        -9.8399255477       -4.7317245093        0.7134088741
 H       -10.8853758322       -4.9759782607        2.1735005726
 H        -9.7880214638       -3.7094287840        2.4089994924
 H       -13.3508970533       -3.0236055156        0.3337123859
 H       -12.6147463222       -4.5847301179       -0.0226669900
 H       -13.0464000773       -4.1808259854        1.7222829906
 H        -9.7259185823       -1.3999314635       -2.4710009496
 H        -9.2935315904        0.0700058255       -1.5380007880
 H        -6.9590349673        1.6156043499       -0.9725190505
 H        -6.1004811616        0.1268290366       -0.9702046944
 H        -5.2126511130       -0.6430774752       -4.7482398613
 H        -6.3435714725       -2.0732896579       -4.4951386482
 H        -5.2389187822       -1.7223888904       -3.2892216234
 H        -9.1017725728        0.2595636785       -3.8604037172
 H        -7.9524548935        1.0627416511       -4.7685189761
 H        -8.4828679855       -0.6525140417       -5.0225636102
 H        -4.8092170900        2.0177775570        0.1154090663
 H        -4.9440970994        3.0752232388       -1.1579681271
 H        -1.5926128134        0.0521273018       -2.5727660796
 H         0.0274433666        0.3801698968       -2.4036742288
 H        -1.0997019610        2.4200852886       -3.2375009191
 H        -0.6358657989        3.5916257137       -1.9271845712
 H        -2.1225518570        3.7646589081       -2.8014094066
 H        -1.5929274624        3.9174907186        0.0348275276
 H        -3.2244626168        3.7801010648       -0.0337567779
 H        -2.3487243458        2.7220575641        1.0497017363
 H        -0.1743951488       -0.9652510517       -0.0663125204
 H        -1.6005106514       -1.7806513282       -0.6604151761
 H         2.6410081704       -4.9332698799        0.0810416414
 H         2.5779025535       -3.2543646190       -0.5751335412
 H        -1.3809430597       -5.2507378316       -0.1244562279
 H        -2.0029397527       -4.6522664211       -1.5319849982
 H        -1.9058584584       -3.6125181231       -0.1291414733
 H         1.5868806594       -4.4873487769       -2.5673050665
 H         0.6201030478       -5.8203809823       -1.6296933850
 H         0.0379933770       -4.8380338192       -3.0104492932
 H         4.0827820579       -3.3051225639        1.6041577156
 H         2.7247858016       -4.0523617022        2.3946262903
 H         5.1665570202        0.2471455200        4.5761938653
 H         5.1106613557       -1.4858069923        4.0850929319
 H         0.3695792700       -1.6256603651        4.0575396985
 H         0.4960437978       -0.2705218078        2.8423371507
 H         0.9258977728        0.1181889029        4.4694077902
 H         3.2552226805       -2.1819545648        5.4193532870
 H         2.1242288851       -3.2736698331        4.6362739571
 H         3.7286456069       -3.0445479199        4.2466868895
 H         5.3768002427        0.1824908458        1.5936531862
 H         6.7693460105        0.3924582490        2.8846425844
 H         7.1359895899       -2.6452595999       -1.6118801651
 H         5.8888044388       -2.2862003595       -0.3057155336
 H         8.6330577049        0.5500550233        1.4203197705
 H         9.9278662829       -0.6107018722        1.1877327289
 H         9.3426081718       -0.4350225424        2.7319296450
 H         9.3565001555       -2.9156533460        0.6664563492
 H         9.1836892369       -2.9917678717        2.4270450799
 H         7.9706944644       -3.7284053595        1.4316967211
 H         5.5220300616       -1.5907079962       -2.9839101534
 H         6.7750026462       -0.3714632544       -2.5792987789
 H         4.0760931240        2.6055250673        0.3169023092
 H         4.8653295083        3.3828258980       -1.0975244340
 H         5.7546766504        2.2284264620       -2.5738309562
 H         4.5330762682        2.3864903117       -3.8885328622
 H         5.8089797307        0.9635090290       -3.7300187267
 H         2.3798276599       -0.6233769577       -2.8703940948
 H         2.4379040112        0.9385262550       -3.6407135431
 H         3.4623488304       -0.2866572692       -4.1078804628
 H         3.3549685597        5.0260347958       -1.1568941722
 H         1.8700109179        4.0418075765       -1.0611404398
 H         1.2750073576        9.0412439329       -0.0822772909
 H         0.9056277035        8.4136575914        1.5558194539
 H         2.5077677220        8.9888302881        1.0497898296
 H         3.0274292896        5.9053931147        3.4443540191
 H         1.3359810066        5.6466658827        2.9340354894
 H         2.0438711749        7.3109394205        3.0934789264
 H         4.4370581459        6.1018336941        0.1422132297
 H         4.4197826758        7.3443054865        1.4267001750
 H         4.7898356542        5.7337118435        1.7839074502
 Na        1.7326702499        1.2038398697        1.1319790210
