155

 C       -11.5832181385       -2.5765963904        2.9079627088
 C       -10.8026229042       -2.4386618033        1.6164808506
 C       -11.0353481668       -3.4802913373        0.4046091461
 C       -10.6370372971       -2.6358361737       -0.9913381554
 C        -9.1622139017       -2.5367371196       -1.3849589223
 C        -9.9371106955       -4.6046493366        0.6587983881
 C       -12.4377864221       -4.0740571373        0.2543001276
 O       -10.0329973142       -1.5190611820        1.5328416849
 O       -11.4963337963       -2.1284957067       -1.6734658731
 C        -8.9289033990       -1.4506936021       -2.4406464520
 C        -7.4362651391       -1.3184752647       -2.7146431541
 C        -6.9392402554       -0.3155139363       -3.7679074888
 C        -6.1913137424        0.8595063978       -3.0601210053
 C        -5.9942214615        0.7531674672       -1.4957847969
 O        -6.6782374991       -2.0769005451       -2.2007434243
 O        -5.8219092504        1.8562562229       -3.6491846803
 C        -6.0067926543       -1.1019772712       -4.7797400189
 C        -8.0351455262        0.3625805616       -4.7271680030
 C        -4.8965370717        1.7737969426       -1.1188384641
 C        -3.4859343296        1.1332407838       -0.8203153289
 C        -2.1764598110        2.0514812768       -0.9209015633
 C        -0.9890175084        1.3013371975       -0.4211464058
 C        -0.5070227681        0.1156870196       -1.2464414656
 C        -1.7881873835        2.7127521857       -2.4361525330
 C        -2.3759079121        3.3752185561       -0.1029138028
 O        -3.3043181098        0.0001107848       -0.3786504938
 O        -0.3908304242        1.6162138268        0.6431226504
 C        -0.8074197730       -1.2688097941       -0.7705829304
 C        -0.0897684968       -2.3152554158       -1.6315154248
 C        -0.1573265590       -3.8670641779       -0.9391993441
 C         0.5672921501       -3.7879862635        0.4656942533
 C         2.0548356711       -3.6755335200        0.5783679468
 O         0.4356248282       -2.0802177313       -2.7000321933
 O        -0.1265260907       -3.6477072103        1.5067786471
 C        -1.6580851896       -4.1669443277       -0.9246427470
 C         0.6213128490       -4.8708665571       -1.8400164058
 C         2.4861274568       -3.2845300671        2.0126249649
 C         2.2360457376       -1.7989505042        2.1036172490
 C         2.7647211394       -0.9928708981        3.3695035185
 C         3.9080105483        0.0047494097        2.9603039990
 C         5.0827757736        0.1720646684        3.8864976341
 C         1.6070688114       -0.0311045472        3.8388302723
 C         3.1061314352       -2.0118633524        4.4464892735
 O         1.5449104370       -1.2207309731        1.2600101984
 O         3.8675510892        0.7172342228        1.9394256816
 C         6.4656182272        0.0186077074        3.1178038983
 C         6.5589950947       -1.3532665974        2.4132261325
 C         7.8092900007       -1.6520725205        1.4447796302
 C         7.5175029484       -1.0003025385        0.0342326828
 C         6.5865400012       -1.7660543923       -0.9704981371
 O         5.7628421407       -2.2348083015        2.6747827811
 O         7.8676956017        0.1747964748       -0.1381301306
 C         9.0388722665       -0.9319490339        2.1011262696
 C         8.1354065822       -3.2043206961        1.4293404003
 C         5.7340559097       -1.0818711742       -1.9914793354
 C         4.6917648263       -0.0692093572       -1.4229926607
 C         4.5750603412        1.3028861597       -2.0981868306
 C         3.6688998888        2.1693953790       -1.0980356708
 C         4.3281313725        3.0892330998       -0.0108322403
 C         5.9834284169        1.9991730093       -2.2174865554
 C         3.8463926728        1.2088264783       -3.6007079593
 O         3.9401318194       -0.4325078681       -0.4818727633
 O         2.4810210159        2.0589570763       -1.1853130175
 C         3.6327484813        4.4805221754        0.1258005943
 C         2.2988990746        4.4569609258        0.9668303551
 C         1.7796457281        6.0159784189        1.5311768122
 C         1.2724295021        6.9091305661        0.3020421740
 C         0.9655405750        8.3577102755        0.6662114332
 O         1.7422123671        3.4340226589        1.2576496933
 O         0.9461781851        6.4187917632       -0.7412168317
 C         0.5384688173        5.9276745241        2.5338131894
 C         2.9472997377        6.7547589520        2.2046107910
 H       -12.3467449051       -1.8756292575        2.8966460944
 H       -11.9381344633       -3.5996636844        3.1414800970
 H       -10.9322303124       -2.2850065332        3.6831106655
 H        -8.5457041202       -2.3842899778       -0.4879313196
 H        -8.8579870179       -3.5295020603       -1.6685395538
 H        -9.6754203145       -5.1358052221       -0.1998815749
 H       -10.2919575656       -5.2455829773        1.4411282151
 H        -9.0001100545       -4.1228173063        0.7768203426
 H       -13.0234833240       -3.2855033968       -0.1948271371
 H       -12.3703195914       -5.0101618645       -0.3685949491
 H       -12.6857868239       -4.4049554699        1.2336713308
 H        -9.3809434017       -1.7398498704       -3.3786272148
 H        -9.4664591365       -0.4766406884       -2.1619383574
 H        -7.0012098898        1.0501887755       -1.0253429601
 H        -5.7862731716       -0.2518647593       -1.2000867550
 H        -5.5853453988       -0.3966319430       -5.5185899621
 H        -6.6764836142       -1.8433803829       -5.2996104064
 H        -5.1980283732       -1.4726134561       -4.2391975880
 H        -8.7478004707        0.9149326079       -4.1207936849
 H        -7.5615913164        1.1214561677       -5.3867353607
 H        -8.4845234894       -0.4081210652       -5.3846081689
 H        -5.2485067983        2.0453529527       -0.1091891226
 H        -4.8674707174        2.5987312397       -1.9193492926
 H        -0.8659858880        0.1651843089       -2.2845209261
 H         0.5256733372        0.2976937378       -1.1726106264
 H        -1.8012107063        1.9550232741       -3.2826823298
 H        -0.8754036936        3.2289701398       -2.3736114123
 H        -2.5224095443        3.3949631451       -2.6659043705
 H        -1.7852681116        4.1839545973       -0.5197504487
 H        -3.3946620653        3.7361496691       -0.2352846504
 H        -2.1657339006        3.2692207626        0.9244675494
 H        -0.4962268857       -1.4171328441        0.2733261092
 H        -1.8831185052       -1.4217475108       -0.8056253365
 H         2.5935569710       -4.6672922714        0.3964064124
 H         2.5554074990       -3.0404423238       -0.1129710946
 H        -1.8867185495       -5.2855444152       -0.9565155367
 H        -2.2022143120       -3.7686388197       -1.7660884574
 H        -2.0906344881       -3.7226902001        0.0216995372
 H         1.6091462955       -4.3690032668       -1.9320272041
 H         0.7147327885       -5.7821396713       -1.2339954401
 H         0.1439265798       -5.0614918759       -2.7723999857
 H         3.5069227731       -3.5588056950        2.1936357366
 H         1.8262856021       -3.7841016229        2.7865714846
 H         5.1684961918        1.1991181635        4.3827062300
 H         5.1934391198       -0.6127660893        4.5484106874
 H         0.8418271387       -0.6246707746        4.3191618842
 H         1.2464561154        0.5219117875        2.9901358418
 H         1.9856818123        0.5806317916        4.6057018511
 H         3.2965869869       -1.5786449010        5.3827699378
 H         2.2206258989       -2.7201202075        4.5279346419
 H         3.9330133793       -2.7007591099        4.3769957502
 H         6.7186571613        0.8717258304        2.5641185346
 H         7.2866468966        0.0612345230        3.8265847848
 H         7.3906654789       -2.4243627576       -1.3956586009
 H         6.1206285165       -2.5143779022       -0.3753377232
 H         8.9764563343        0.1749846956        2.1228231895
 H         9.9832784287       -1.2673739936        1.6528910949
 H         9.0051312112       -1.0887568386        3.2571626099
 H         7.3356470546       -3.7368625131        0.8703671790
 H         9.1056950197       -3.4692545554        1.0268286204
 H         7.9993140046       -3.6291610374        2.3948462851
 H         5.1662312072       -1.8033739920       -2.5302200962
 H         6.3628766743       -0.4089101308       -2.6503027558
 H         4.3635816338        2.7497730235        1.0511358417
 H         5.3468078335        3.2582479211       -0.2631528162
 H         6.5853607122        1.9155942046       -1.2745684045
 H         5.9579609752        2.9795452196       -2.6860818881
 H         6.5490294656        1.3326803439       -2.8557158998
 H         2.7672286736        1.3602980104       -3.3096365279
 H         4.1231351141        1.7986059014       -4.5080932409
 H         3.9946106433        0.1229077692       -3.8797175274
 H         4.3536336444        5.0196401971        0.7761625494
 H         3.5487042722        5.1100475201       -0.8636200792
 H         1.7386887784        9.0391460244        0.3840149220
 H         0.0926675943        8.7566596065        0.0175281548
 H         0.7201763819        8.2823052015        1.7546124065
 H         0.8206525693        5.1668353821        3.2906923072
 H        -0.4280940542        5.5945082153        2.0407070328
 H         0.3728361034        6.8947403148        3.0105024310
 H         3.7245026807        6.9916791680        1.4809556127
 H         2.7504814777        7.5739439693        2.8606410936
 H         3.4722842202        6.1019401545        2.9529510565
 Na        1.8005513055        1.0467273528        0.8091365064
