155

 C       -11.2639201082       -2.7613380824        2.7460565637
 C       -10.6196039087       -2.6339217877        1.3388825405
 C       -10.9461881390       -3.5871279136        0.1700348091
 C       -10.6764447488       -2.6584758021       -1.1697872108
 C        -9.1951623133       -2.6521113284       -1.5428549526
 C        -9.9791413670       -4.7712719062        0.3868841259
 C       -12.3850697218       -4.1759572292        0.2782298056
 O        -9.7487764281       -1.8374391847        1.2755094704
 O       -11.5431419793       -2.0766637154       -1.7264766964
 C        -8.9169293675       -1.5880974946       -2.6086576943
 C        -7.3787612201       -1.4536468350       -2.9908966434
 C        -6.9976568346       -0.2553368122       -4.0161202052
 C        -6.1674070055        0.8795340067       -3.1940908099
 C        -5.8306224791        0.5256880513       -1.7099902154
 O        -6.6323784382       -2.2641479328       -2.5798016712
 O        -5.8505436441        1.9258309062       -3.6575893956
 C        -6.0010118071       -0.9193691414       -4.9383378806
 C        -8.0694676859        0.4456697156       -4.8118073908
 C        -5.0775395995        1.6527860644       -1.0101399987
 C        -3.7280779480        1.1766314097       -0.4100154869
 C        -2.3878996573        2.0513420872       -0.8668436064
 C        -1.0729207190        1.2526841996       -0.7323689894
 C        -0.5671677674        0.0948790462       -1.6197331893
 C        -2.5645224388        2.5000497438       -2.3429294486
 C        -2.3364933066        3.3405774989       -0.0521550855
 O        -3.6708638311        0.2240978275        0.3288313626
 O        -0.3459625556        1.5206739144        0.2056546089
 C        -0.9177305571       -1.2156975463       -0.9786424312
 C        -0.0387149000       -2.3451538212       -1.5403716078
 C        -0.2353224406       -3.7866649280       -0.8772785935
 C         0.3607270451       -3.6693236525        0.5258582844
 C         1.8252383580       -3.7002363092        0.6582150480
 O         0.8536786314       -2.1846779728       -2.3157046397
 O        -0.3644284499       -3.6313883377        1.5237384716
 C        -1.7139111255       -4.3205732328       -0.8664955632
 C         0.5506991796       -4.8033513196       -1.7898183809
 C         2.5174167806       -3.2410128067        1.9799009134
 C         2.2867379955       -1.6004726551        2.1968087480
 C         2.7459653472       -0.8997629431        3.4952420887
 C         4.0295748134       -0.0687793657        2.9253622938
 C         5.3047655479        0.2050426890        3.8583255272
 C         1.6527352712        0.0929386905        3.9464950649
 C         3.1326285953       -1.7856307938        4.6712068781
 O         1.6880554495       -1.0091977934        1.3542175181
 O         4.0537497290        0.5120039689        1.8666224972
 C         6.5933817254        0.0199125026        3.1571573737
 C         6.7609309156       -1.3257290086        2.4903175628
 C         7.9444421847       -1.7486028411        1.6039969845
 C         7.3500676725       -1.0587866395        0.3334783939
 C         6.0698812001       -1.5759839523       -0.3536912875
 O         5.7499221793       -2.0338112319        2.5155853257
 O         7.9033558993       -0.0251937038       -0.0352974420
 C         9.2640502643       -1.1373258786        2.1160905492
 C         8.0785401334       -3.3118329061        1.5382514536
 C         5.7737228829       -0.7800179900       -1.5849781888
 C         4.6272305862        0.1433393178       -1.3437913801
 C         4.7920065396        1.6449349276       -1.9402032925
 C         3.8855403026        2.5283870640       -1.1102804183
 C         4.5303326731        3.4743956603       -0.0520146258
 C         6.2392123350        2.1391530493       -1.9611273536
 C         4.0626705109        1.3762588140       -3.3468253793
 O         3.5671585915       -0.2812274823       -0.8767049159
 O         2.7186269897        2.7419391938       -1.3301035897
 C         3.6255172648        4.7981616622        0.1202824162
 C         2.4105333080        4.4698026331        1.1853806206
 C         1.4958429649        5.7765388542        1.5697410222
 C         1.1462643646        6.5970032651        0.3798637294
 C         1.0166911968        8.1019891150        0.5335402659
 O         2.1231259546        3.3510685489        1.5405599072
 O         0.9643661174        6.0099023737       -0.6767983263
 C         0.2239537901        5.3568453650        2.3191958332
 C         2.3127062005        6.6528013070        2.6307740095
 H       -12.1804610611       -2.3151473959        2.7921961372
 H       -11.3634558928       -3.7504499116        3.2116107138
 H       -10.5298918526       -2.2496019721        3.3895440079
 H        -8.5570426956       -2.4507956488       -0.6767495989
 H        -8.8083333704       -3.5124830149       -1.8835572710
 H       -10.2501623675       -5.6279575848       -0.2942667954
 H        -9.7927166630       -5.0601920306        1.4760535504
 H        -8.9631384048       -4.4741603259        0.0466383675
 H       -13.0322846979       -3.5957868755        0.9311707816
 H       -12.7620241127       -4.2153704223       -0.7538420281
 H       -12.2671190387       -5.1527389965        0.6484866515
 H        -9.3339023160       -1.8458686555       -3.5318301673
 H        -9.2322905334       -0.5650687059       -2.2054369080
 H        -6.8720002940        0.3685476937       -1.1874679181
 H        -5.2715999404       -0.3906418317       -1.5721862717
 H        -5.6723083146       -0.0931799269       -5.5829725914
 H        -6.5428021004       -1.7289284644       -5.5073087585
 H        -5.1945056051       -1.3555088082       -4.4313718898
 H        -8.6396459568        1.2256260608       -4.3203808176
 H        -7.5085023776        0.9519892557       -5.6299102687
 H        -8.8289292774       -0.3009523079       -5.0899120178
 H        -5.5898875396        1.8338329867       -0.0224799469
 H        -4.9767032655        2.5683238469       -1.6817006355
 H        -1.0891089899        0.1218482689       -2.5431408474
 H         0.4834616882        0.1077665869       -1.7097759969
 H        -3.1810214028        1.7384215636       -2.9539971748
 H        -1.6139806867        2.6775434317       -2.7849594735
 H        -3.0556915357        3.4103121464       -2.3926431957
 H        -1.2854404968        3.6127094161        0.1003156995
 H        -2.6891007899        4.1862545504       -0.6035771554
 H        -2.7331127149        3.2786468625        0.9167636911
 H        -0.5587157447       -1.0137137531        0.0685648784
 H        -1.9236770605       -1.4997724105       -0.9819865960
 H         2.0712504495       -4.8112052581        0.5021491568
 H         2.2438535158       -3.0775893597       -0.0980561395
 H        -1.8980196453       -5.2490080177       -0.3140498473
 H        -1.8777851481       -4.5609213775       -1.8801134107
 H        -2.4408023264       -3.5866090235       -0.6142701619
 H         1.5804638788       -4.5276339075       -1.9093059097
 H         0.2581942796       -5.7851811041       -1.3393928286
 H         0.2654010570       -4.5949926085       -2.7959432112
 H         3.5664999716       -3.3638894938        1.9629260705
 H         1.9765960340       -3.8618395507        2.7496025495
 H         5.2903713738        1.2852520885        4.1433298382
 H         5.5323206275       -0.3811217186        4.7570810384
 H         0.7390978608       -0.5620435475        4.1268926463
 H         1.5861988821        0.8155430435        3.0722462816
 H         1.9496735458        0.7317916023        4.8119028516
 H         3.4363169500       -1.3426462052        5.6136856974
 H         2.2870792711       -2.4858714938        4.9476638399
 H         4.0457026497       -2.4335420711        4.4506625248
 H         6.7458894625        0.7895494681        2.3996984831
 H         7.4827895146        0.3127231869        3.7918533713
 H         5.9975266901       -2.7064650627       -0.5161035558
 H         5.3653246741       -1.5695177805        0.4752869981
 H         9.2568550858       -0.0522677194        2.1427327183
 H        10.0486288538       -1.4255659841        1.4147845357
 H         9.5729147668       -1.6193233121        3.0985477959
 H         7.2859883913       -3.8233359512        2.1189105478
 H         8.1202917626       -3.5733374093        0.5018118754
 H         9.0014921100       -3.6984485789        1.9481471250
 H         5.5078536199       -1.4580040925       -2.3974452809
 H         6.6248756640       -0.2075928647       -1.9391297950
 H         4.5688815719        2.8977022739        0.9352808990
 H         5.5587844493        3.8004929722       -0.2119184025
 H         6.7914482042        2.3177862839       -0.9889335496
 H         6.0734467856        3.1437224223       -2.4248000203
 H         6.9889459629        1.5828912926       -2.5913932683
 H         3.4482592118        0.3440652263       -3.3619390328
 H         3.3259797080        2.1353453704       -3.5465751777
 H         4.8486165943        1.3317504240       -4.0799682021
 H         4.1520921995        5.6911551902        0.4095171321
 H         3.2954802026        4.9394391651       -0.9881559383
 H         1.9104220094        8.5818211099        0.9741445772
 H         0.8108944981        8.5125035435       -0.4855480718
 H         0.1827861243        8.2977502237        1.2790088613
 H         0.5088562273        5.1030107391        3.3547157977
 H        -0.3991656135        4.5976770806        1.8150045735
 H        -0.3958554829        6.1859287070        2.4011252474
 H         3.1590145528        7.1863227540        2.2237716670
 H         1.6555996466        7.3562354057        3.1444418701
 H         2.7697704085        6.0855429764        3.4516910909
 Na        2.0540112044        1.1936771084        0.4427756696
