155

 C       -10.4136067892       -3.5678327526        2.2323661414
 C        -9.8977621365       -3.3177371680        0.8463610225
 C       -10.6921049473       -3.8764908619       -0.4449883043
 C       -10.2609780574       -2.9193451273       -1.5891055265
 C        -8.8240791487       -2.8643138613       -2.2414863768
 C       -10.0812047050       -5.1923847718       -0.8984017268
 C       -12.2422789251       -3.9590181832       -0.3392677353
 O        -8.8011951046       -2.7721166486        0.6626478605
 O       -11.0474177891       -2.0748730289       -1.9889919192
 C        -8.6721035271       -1.6613745732       -3.1028096226
 C        -7.2599193294       -1.5588145981       -3.7169151184
 C        -6.6659813619       -0.1828049824       -4.2392644187
 C        -6.2258706306        0.6307553236       -2.9098524407
 C        -5.2866754289       -0.0312793015       -1.8498575341
 O        -6.4479611171       -2.4275010676       -3.5705387122
 O        -6.7270861426        1.7248682299       -2.5967038443
 C        -5.3789591662       -0.4448454507       -5.1530887474
 C        -7.6801837292        0.6610913538       -5.0067017668
 C        -4.8828654050        0.9296772489       -0.7095787913
 C        -3.3892915066        0.8347919178       -0.4391659912
 C        -2.2903788890        1.7991910505       -1.1649075209
 C        -0.8858703036        1.3058323486       -0.7257196692
 C        -0.1350633440        0.1235769408       -1.3674518356
 C        -2.5497555106        1.4432950317       -2.6833247512
 C        -2.4192627629        3.2863502769       -0.8700429955
 O        -2.9741155282       -0.0387340415        0.2644135308
 O        -0.3468281370        1.8588856963        0.2205391487
 C        -0.8041929154       -1.1769028558       -0.9148714299
 C         0.1033311446       -2.4474184547       -1.1818490389
 C        -0.1553478351       -3.8335243810       -0.3996410205
 C         0.2098401344       -3.5357478536        1.1568120449
 C         1.8682569002       -3.5655786926        1.3997854708
 O         0.9795048508       -2.3973217321       -1.9618376268
 O        -0.6801199277       -3.3686605642        1.9341125931
 C        -1.6351306769       -4.2951884903       -0.4544810417
 C         0.7011945462       -4.9586519298       -1.0600400008
 C         2.3126599246       -2.7733941992        2.7034249305
 C         1.9361473921       -1.3329358725        2.4185755748
 C         2.1942996977       -0.2770268198        3.5807848097
 C         3.6981787766        0.2006917653        3.1831455940
 C         4.9977081581       -0.0406903088        4.1887184901
 C         1.3254702737        0.9312576274        3.3790040665
 C         2.0946429646       -0.7811770352        5.0125091960
 O         1.5319380942       -0.9424242099        1.3308407425
 O         3.9668920246        0.7052179887        2.1014640288
 C         6.2722449152       -0.2058904190        3.3644236275
 C         6.1436948497       -1.5930617072        2.4980844658
 C         7.1220548621       -1.8191292334        1.3469373792
 C         6.8750943052       -0.8276350595        0.2050202060
 C         6.3084285267       -1.3537952529       -1.1597259991
 O         5.2910442924       -2.4254239714        2.7821840097
 O         7.3472499750        0.2848652635        0.2636019854
 C         8.6454415002       -1.4333426122        1.8306241863
 C         7.2199769098       -3.2935798499        0.9651034300
 C         6.0506112932       -0.1834555586       -2.0850579349
 C         5.0142221945        0.7976083495       -1.4256235115
 C         5.1273823037        2.4211248916       -1.6755151956
 C         4.1135926621        3.1456999392       -0.8568166323
 C         4.4915265439        4.1553149732        0.2155893280
 C         6.5232677154        2.8812650095       -1.4212520590
 C         4.8888459401        2.7106260549       -3.2627910145
 O         4.1508887128        0.2646141799       -0.7248264844
 O         2.9228719937        2.9415184157       -1.0221608416
 C         3.3392323266        5.2095754515        0.4385477519
 C         2.3390318191        4.4876246992        1.4040180954
 C         1.1469386903        5.3981215712        1.9335087009
 C         0.5848209966        6.0646095486        0.6874940230
 C        -0.1439830663        7.3740097465        0.8184949123
 O         2.5193491338        3.3118692255        1.7864075490
 O         0.6352745974        5.4917887031       -0.4007815957
 C         0.0678388785        4.5843704733        2.6525478312
 C         1.7641908955        6.4835025491        2.7685974082
 H        -9.6434933977       -3.4244255256        2.9560177034
 H       -11.3034610445       -3.0110576456        2.4648409839
 H       -10.6357775559       -4.6849890763        2.3460631962
 H        -7.9461701416       -2.9090375107       -1.4295431083
 H        -8.7555522151       -3.7083783865       -2.8946867581
 H       -10.7119557114       -5.6850350597       -1.6946690619
 H        -9.9750203660       -5.8236661508        0.0416896903
 H        -9.1047919626       -5.3122849610       -1.3482489430
 H       -12.7672834930       -3.0715381935       -0.0495843460
 H       -12.7404926230       -4.2718377373       -1.2974731240
 H       -12.5145906226       -4.7343458026        0.3327589591
 H        -9.4438330727       -1.6338581376       -3.8794456631
 H        -8.8505027360       -0.7719307484       -2.6062959144
 H        -5.7459756580       -1.0094386456       -1.5532254481
 H        -4.3469206060       -0.3198318741       -2.3882533635
 H        -4.9274273172        0.4487392358       -5.6137015191
 H        -5.6937905646       -1.2210425507       -5.8951088924
 H        -4.6603298118       -0.8215524843       -4.4893038596
 H        -7.4665371491        0.7465019129       -6.0605203057
 H        -8.6939110920        0.2977683712       -4.8575834186
 H        -7.7662211229        1.5483999846       -4.4163519032
 H        -5.4616299526        0.7959218025        0.1935856735
 H        -5.0565527648        2.0223581886       -1.1084441739
 H        -0.3247704473        0.2117502906       -2.4630143755
 H         0.9249274633        0.1333349099       -1.2305662756
 H        -2.5924827953        0.3546642066       -3.0280678559
 H        -1.8212113009        1.9582684430       -3.3390446258
 H        -3.5013065063        1.9070529335       -2.9431604237
 H        -3.0656488064        3.4435734537        0.0173672928
 H        -1.4158337057        3.7138001392       -0.6309688821
 H        -2.9539228880        3.7191871435       -1.7092551117
 H        -1.2404966323       -1.1452844071        0.0770244222
 H        -1.7389999840       -1.2829301040       -1.5723351954
 H         2.3151706017       -4.5659288140        1.4680854643
 H         2.2619583714       -3.2242412271        0.4458369167
 H        -1.8198217898       -4.9443838926        0.4620180265
 H        -1.8150340462       -4.9105898036       -1.3206115993
 H        -2.3622443448       -3.4811945781       -0.3779210259
 H         1.1632804004       -4.6244278721       -2.0082284338
 H         1.4593438773       -5.4465887997       -0.3385559174
 H         0.0375269567       -5.6937063425       -1.5268952349
 H         3.3957959609       -2.8721762577        2.7420821665
 H         2.0341042430       -3.2074440762        3.6713220779
 H         5.2332135452        0.8533604647        4.8369869023
 H         4.7514051013       -0.8924569060        4.8690921974
 H         0.2977709255        0.6469755896        3.2580934201
 H         1.6349766795        1.5245898874        2.5385390559
 H         1.3939517780        1.5780232279        4.2024097589
 H         2.4397314887       -0.1046348670        5.7559818005
 H         0.9942558322       -0.8048717177        5.1505091902
 H         2.7449602500       -1.6937556222        5.0693593556
 H         6.2312314693        0.6874503450        2.7349287234
 H         7.0348109430       -0.3301456733        4.1371459268
 H         7.1747991098       -1.7512134920       -1.6657538079
 H         5.3479913770       -1.9192934062       -1.0823747071
 H         8.7700697744       -0.4022628248        1.9360584554
 H         9.2898867730       -1.8881426242        1.1339792228
 H         8.7911088105       -1.8505493958        2.8088859810
 H         6.7001698482       -3.4711781647        0.0064090795
 H         8.2619355766       -3.5701742015        0.8648602667
 H         6.7107216296       -3.9387628851        1.6189799789
 H         5.5820128416       -0.4843852406       -3.1032796612
 H         6.9978043426        0.3877705342       -2.2296604045
 H         4.6587992013        3.7393574918        1.2055660558
 H         5.3803868039        4.7885363097       -0.0690776380
 H         6.7398552949        3.0097101848       -0.3664741103
 H         6.6360471360        3.8639494093       -1.8010186057
 H         7.3195214240        2.2568196978       -1.7790725906
 H         3.8120471541        2.6296400271       -3.4086787962
 H         5.1266808542        3.7231428376       -3.5696664094
 H         5.4331550091        1.9673069855       -3.8545525303
 H         3.8011484726        6.1166016115        0.9136955532
 H         2.7604626089        5.6563607236       -0.4328321265
 H         0.3546682609        8.1176632386        0.2329752454
 H        -1.0512317708        7.3089068620        0.3414958229
 H        -0.2854815334        7.6065844354        1.8654210716
 H         0.4710245921        4.4011477390        3.6436147163
 H        -0.0343133159        3.5453788063        2.2678646630
 H        -0.8923302198        5.0022987443        2.6821199179
 H         2.3987701359        7.0744576615        2.1407055300
 H         1.0971147000        7.0524729078        3.3594453923
 H         2.4949275589        5.9291965150        3.4325831840
 Na        2.1109912593        1.1104271059        0.4650523877
