155

 C       -10.4294150123       -3.8634744375        1.9912714329
 C        -9.6635919938       -3.4815796988        0.6814992181
 C       -10.4727071657       -3.8980653909       -0.6823572308
 C       -10.2614546113       -2.7669439312       -1.7596009858
 C        -8.9450458259       -2.8118184695       -2.4794250078
 C        -9.9879427238       -5.3567584314       -0.9533768384
 C       -11.9424573999       -3.8903968981       -0.3437979588
 O        -8.6575606173       -2.8788024524        0.7335426165
 O       -11.0930969699       -1.9603516779       -2.0283454024
 C        -8.6748769722       -1.4862566035       -3.2160234036
 C        -7.1707689564       -1.5225573757       -3.6965390709
 C        -6.5770808119       -0.2494014304       -4.1727085149
 C        -6.3174785889        0.5944834485       -2.7674835691
 C        -5.1829743683       -0.0431031270       -1.8709735363
 O        -6.4269944088       -2.4868347785       -3.5141120585
 O        -6.9160123174        1.5429446395       -2.4397029648
 C        -5.3169317116       -0.5224169868       -4.9576486170
 C        -7.4851897392        0.7195534812       -4.9979882617
 C        -4.6073920372        1.1496129118       -1.0563208524
 C        -3.2149844733        0.8309398144       -0.5247307296
 C        -2.0082072228        1.6774729397       -1.2798457602
 C        -0.6923014632        1.0654575093       -0.6848679430
 C        -0.2194026503       -0.1880468466       -1.3771081615
 C        -2.1030485130        1.5044118183       -2.8018723240
 C        -2.2637650969        3.1454065744       -0.8896561289
 O        -2.9927693505        0.1100269161        0.4367964657
 O        -0.1227857503        1.5526045804        0.2808928108
 C        -0.9648403734       -1.4527713306       -0.9734479123
 C        -0.0321156273       -2.5792337029       -1.2633116516
 C        -0.2192923802       -3.9967555533       -0.4680635641
 C         0.0943543428       -3.6657067426        1.1183021309
 C         1.5684452609       -3.7572622520        1.6559542136
 O         0.9778750501       -2.4464398424       -1.9658153153
 O        -0.8211495386       -3.4188344739        1.8899579695
 C        -1.7110243898       -4.4845245156       -0.5436308360
 C         0.8123051937       -5.0278565330       -0.9445113704
 C         1.7109070490       -2.8141306293        2.8062577884
 C         1.7514255206       -1.3427731320        2.4078212524
 C         2.1650169101       -0.2960964453        3.6370629361
 C         3.7258971460        0.2042791409        3.2035917091
 C         4.8848357563       -0.1778675749        4.1449684130
 C         1.2543655477        0.9451819836        3.4924733130
 C         2.0995654141       -0.8733797640        5.0448064644
 O         1.6758607788       -0.8213834637        1.3033065578
 O         3.8877319338        0.6395396942        2.0964976548
 C         6.2420271722       -0.1889686341        3.3218561481
 C         6.2564524456       -1.4561654232        2.5085209334
 C         7.3678944656       -1.7635421026        1.3395360899
 C         6.9465263213       -0.7545957253        0.2116757387
 C         6.2245951334       -1.2838139523       -1.0553643194
 O         5.4503251715       -2.3536002099        2.6595534211
 O         7.1771466235        0.4458748446        0.4323202432
 C         8.8429587533       -1.5679830117        1.7959436383
 C         7.0725483500       -3.3406554640        0.8904873564
 C         6.0046300215       -0.0815488751       -2.0973324294
 C         4.9812745701        0.9420206684       -1.4727525227
 C         5.2217607872        2.4861539502       -1.6991773082
 C         4.1357818663        3.1165698508       -0.7925352029
 C         4.4233762495        4.2941899979        0.0779111691
 C         6.6788323668        2.8307043741       -1.4076538016
 C         4.7956346156        2.6840553868       -3.1651002333
 O         4.0978053074        0.4861828116       -0.8324342849
 O         2.9889898528        2.8361349554       -1.1185008031
 C         3.1876449849        5.0924371803        0.4405070921
 C         2.2241560163        4.5956719880        1.5218409348
 C         1.0800600165        5.6081770046        1.9136134983
 C         0.2492485503        6.2069793547        0.6840529981
 C        -0.6293158642        7.4738336983        0.8759313743
 O         2.3377363356        3.5278169034        2.0248647585
 O         0.3207063513        5.7030380538       -0.4061985838
 C         0.1391398856        4.8144781404        2.7944409169
 C         1.7179912602        6.6853630147        2.8424617150
 H        -9.8951393820       -3.3878348014        2.7960427375
 H       -11.4858683772       -3.5029007752        1.9903873215
 H       -10.4811368523       -4.8724853121        2.2220792974
 H        -8.2149197090       -3.0141755677       -1.7931432424
 H        -8.9150103879       -3.6600271747       -3.2537208307
 H       -10.4584447717       -5.7700293075       -1.8507215733
 H        -9.9942867982       -6.0686589864       -0.1391939884
 H        -8.9202622899       -5.3567940350       -1.2875638296
 H       -12.2074111328       -3.0296373207        0.2750208569
 H       -12.5607948019       -3.7890100026       -1.1873319976
 H       -12.3464382929       -4.7520427614        0.2175152041
 H        -9.3483785435       -1.3153393267       -4.0626119988
 H        -8.7730108676       -0.5492188107       -2.5423719681
 H        -5.5934423092       -0.9131947301       -1.3961650431
 H        -4.3731209641       -0.4274743349       -2.4915798075
 H        -4.8993350117        0.4441350119       -5.1492367459
 H        -5.5349280202       -1.0550650571       -5.8367278826
 H        -4.5441516837       -1.0886595992       -4.3541511218
 H        -8.0921324264        0.1111872237       -5.7246177899
 H        -8.2028638972        1.1984841300       -4.3176308620
 H        -6.8491582992        1.5479615052       -5.4106345301
 H        -5.3219297236        1.2768139477       -0.1973358268
 H        -4.5486999887        2.0062174908       -1.6755382982
 H        -0.2986962001       -0.0000267835       -2.4329681400
 H         0.8241989789       -0.3961217122       -1.1165558290
 H        -1.9557193119        0.4585834844       -3.0171699570
 H        -1.3095812094        1.9893185687       -3.3196172771
 H        -3.0269848186        1.8045812897       -3.2427875081
 H        -3.2623841178        3.2624234641       -0.4532562535
 H        -1.5482155447        3.3060303129       -0.0935077792
 H        -2.2510896429        3.8237349122       -1.7692306688
 H        -1.4683401140       -1.5082987536       -0.0159841513
 H        -1.8245950927       -1.5902028815       -1.6078508923
 H         1.7795656189       -4.7843126768        1.9602505432
 H         2.2423722900       -3.6335513329        0.7921163380
 H        -1.8168701866       -5.3998932300       -0.0777957864
 H        -1.9757910079       -4.6358494528       -1.5807687274
 H        -2.4186465423       -3.7834703489       -0.1172903147
 H         1.6568681658       -4.5333060985       -1.4501349024
 H         1.0986221179       -5.5873769583       -0.1001950117
 H         0.5061585317       -5.6434205729       -1.8022289419
 H         2.4793463549       -3.1994545814        3.5083956145
 H         0.8422603361       -2.8347219728        3.4556921524
 H         4.7810034717        0.5185967645        4.9693790448
 H         4.6457255161       -1.1386085790        4.5167475771
 H         0.2107386650        0.5215657982        3.3539342873
 H         1.4789681954        1.7208077492        2.7146882382
 H         1.2179494411        1.5373301200        4.4807284931
 H         2.5125756392       -0.1278502174        5.8066222873
 H         1.0369839463       -0.8475279193        5.2357281744
 H         2.6457159978       -1.7935126400        5.1093070270
 H         6.1748133347        0.5424651013        2.4980674737
 H         7.0707719531       -0.1982670820        3.9739674889
 H         6.7314127334       -2.0597819399       -1.5982659995
 H         5.2493830197       -1.4410103631       -0.6641755361
 H         8.9010147044       -0.5415960764        2.2510963567
 H         9.4675909979       -1.5706624319        0.8818289808
 H         9.1776049901       -2.3671038707        2.5193575971
 H         6.2035297484       -3.4834572612        0.2884954698
 H         7.9685777403       -3.7787303800        0.4338394200
 H         6.8666417958       -3.9553562156        1.8025908597
 H         5.4922577821       -0.3826388019       -2.9389389361
 H         6.9489575821        0.3977409434       -2.3738454846
 H         4.9210218683        3.7187494890        0.8936356811
 H         5.1018804084        4.9895281558       -0.3670246489
 H         7.1268420327        2.2137986651       -0.5649148429
 H         6.9639676867        3.9135956310       -1.2438076883
 H         7.2829048863        2.6049149574       -2.3214791541
 H         3.7330414641        2.3302339987       -3.4192623357
 H         4.7931691875        3.7677098594       -3.3691579135
 H         5.5916303446        2.2198358037       -3.7572933526
 H         3.4108279255        6.1670711189        0.6697032550
 H         2.6087332843        5.2039041844       -0.4661282339
 H        -0.1055290526        8.3589707340        0.4910535010
 H        -1.3858226839        7.3505167375        0.0067005097
 H        -1.0764538997        7.5542777001        1.8783874245
 H         0.6929759555        4.3512698717        3.5764445974
 H        -0.4530819854        4.0790061771        2.3028170836
 H        -0.6381004810        5.4842651229        3.2599702205
 H         2.3995668019        7.4047530205        2.3657782208
 H         0.8418822122        7.1851243357        3.2806148830
 H         2.2041292320        6.1484866596        3.6081411045
 Na        2.4120395465        1.4220742667        0.6080761632
