155

 C        -9.6576892680       -5.1831229269        1.3319087847
 C        -9.4212485959       -4.2669777087        0.1806023609
 C       -10.3990968362       -4.1976636359       -1.0733889005
 C        -9.8430277103       -3.0597453864       -2.0445318049
 C        -8.3924768918       -3.0564214095       -2.5514494818
 C       -10.3703095672       -5.5077525686       -1.9542591905
 C       -11.8351542777       -3.8073510400       -0.6493166633
 O        -8.3359432662       -3.6376176214        0.2033341485
 O       -10.5361504236       -2.0945469775       -2.2400724262
 C        -8.0097592882       -1.5920515035       -2.8107307649
 C        -6.8336684814       -1.4896510016       -3.7878401908
 C        -6.2472824819        0.0421548207       -4.1986842985
 C        -5.7757565504        0.6157590542       -2.8603709348
 C        -4.3668520438        0.1646901881       -2.2952087447
 O        -6.2494090820       -2.4628506935       -4.2092933804
 O        -6.4604696106        1.4228962008       -2.1868588559
 C        -5.0682950630       -0.2074651634       -5.0938952461
 C        -7.3946473980        0.8662741703       -4.7910330009
 C        -3.7783262542        1.4065649426       -1.5568883998
 C        -2.4194184988        0.9291860189       -1.1097806613
 C        -1.1002564012        1.4768565469       -1.7417076311
 C         0.0224612055        0.9012864639       -0.8729641928
 C         0.6859447976       -0.5500418818       -1.0681615915
 C        -0.9148290035        1.0289830989       -3.2343038509
 C        -1.1262226117        2.9685416934       -1.5847950179
 O        -2.3366204680        0.3732296110       -0.0451706988
 O         0.5165531450        1.5380034145        0.0425980130
 C        -0.4248484978       -1.6584664838       -1.1346763131
 C         0.1747542379       -3.0822823296       -1.1865000238
 C        -0.6629608626       -4.2179656625       -0.3209560234
 C        -0.5192030082       -3.8819689514        1.1307879774
 C         0.8998444679       -3.2769840455        1.5298999047
 O         1.1134697176       -3.3635741057       -1.9669050815
 O        -1.4181262554       -3.9688863924        1.9407253889
 C        -2.0783641885       -4.1771551423       -0.9044130698
 C        -0.0382810452       -5.6432611027       -0.6903616552
 C         0.8758786129       -2.4070379263        2.7949937951
 C         1.7294573420       -1.1402986988        2.8180136620
 C         2.2039124145       -0.4888395437        4.2209220792
 C         3.5952973475        0.0437967745        3.8903065666
 C         4.8186455756       -0.8069246655        4.2836842604
 C         1.3874592310        0.7845160405        4.4779315143
 C         2.1635432935       -1.4847170183        5.5002008443
 O         1.8763547460       -0.5425553167        1.7865621871
 O         3.7956722562        1.0169759359        3.2535789019
 C         6.0594708735       -0.7414691390        3.5546018720
 C         5.9618769292       -1.6939700065        2.3335320923
 C         7.1621423961       -1.7161563780        1.3708161016
 C         6.7731800686       -0.6154965501        0.2545877159
 C         6.0259192710       -0.9625443505       -1.0173868938
 O         4.9790287720       -2.3393913830        2.0522047089
 O         7.0813075993        0.5450419227        0.4223850436
 C         8.4433509314       -1.2323768253        2.2158104819
 C         7.4603186840       -3.1559034817        0.9073725424
 C         5.8100136491        0.3193945406       -1.7542901006
 C         4.9424990190        1.2932225488       -1.0252881551
 C         4.8486729718        2.7955699083       -1.3887914588
 C         3.4282606020        3.4251709447       -1.0410416687
 C         3.3285036773        4.9796186443       -0.7554153753
 C         6.0104533965        3.4902562218       -0.6418495986
 C         4.9290224430        2.9644603980       -3.0124828114
 O         4.3423048826        0.8576969363       -0.1003191896
 O         2.4456169944        2.6921661114       -1.1844589273
 C         1.8571134140        5.2648843352       -0.3368127971
 C         1.4700882833        4.8687237008        1.1578786150
 C         0.5497682013        6.0017033451        1.9027918489
 C        -0.7151002358        6.4370722871        1.1769156243
 C        -1.8391428312        6.9733749171        2.0068803144
 O         1.7501252331        3.8581888866        1.8041098931
 O        -0.8181881338        6.5358297955        0.0028703638
 C         0.3788610524        5.3714416275        3.2916500598
 C         1.4759586614        7.2686340033        2.0424448100
 H        -9.3523916890       -4.7305901927        2.3060604263
 H       -10.6551783571       -5.5029241778        1.4097767886
 H        -8.9542966232       -6.0912851012        1.1630445819
 H        -7.7195860032       -3.4642845178       -1.6696999096
 H        -8.2514087978       -3.6493475604       -3.4763747793
 H       -11.1866376351       -5.4422194615       -2.6313509783
 H       -10.3313591629       -6.3520048872       -1.3151951593
 H        -9.4878942322       -5.5186032545       -2.5237800700
 H       -11.7928262248       -2.7764083130       -0.3489971966
 H       -12.7220066248       -3.8910832810       -1.3484536609
 H       -12.1509018423       -4.4261537234        0.1823913421
 H        -8.8785011021       -1.1039492875       -3.2275861523
 H        -7.8305199354       -1.0820891689       -1.8765812938
 H        -4.4820258061       -0.6807567416       -1.6572669966
 H        -3.7038882310       -0.1243129690       -3.1850445090
 H        -4.1676209037        0.3763294885       -4.8771995911
 H        -5.2527280092        0.0370874572       -6.1395115400
 H        -4.6834749675       -1.2209206294       -5.0316380814
 H        -7.1165022846        1.8980908095       -5.0440674952
 H        -7.9208610395        0.4528953074       -5.6424351599
 H        -8.2470278380        0.9205715972       -4.1099274541
 H        -4.4160010751        1.8593049631       -0.7868112467
 H        -3.8159525658        2.2529764829       -2.3495045003
 H         1.3289925387       -0.6081337613       -2.0211957448
 H         1.3591955270       -0.6364046646       -0.2254545182
 H        -0.7096747733       -0.0340947622       -3.4301350629
 H        -0.0480831003        1.5859692547       -3.6294247354
 H        -1.8153362210        1.2961688961       -3.7904912442
 H        -1.7649007290        3.3853661256       -2.3358582285
 H        -1.6568437239        3.0530399152       -0.6403586493
 H        -0.1488139613        3.4055504359       -1.4592403288
 H        -1.0742369624       -1.4819680064       -0.3365336324
 H        -1.0091577301       -1.5309482169       -2.1525353300
 H         1.5895246837       -4.0682817825        1.7413566737
 H         1.2833686407       -2.6196050825        0.7225418648
 H        -2.4365295407       -5.2094413499       -1.0618433733
 H        -2.1095105522       -3.7650777867       -1.8612138319
 H        -2.7876088435       -3.6772137459       -0.2428830056
 H         0.1818521313       -5.7848230676       -1.7186571797
 H         0.7789660662       -5.9347304757       -0.0532081284
 H        -0.7344873009       -6.3742989627       -0.4476735104
 H         1.3546021899       -3.0117143629        3.6383376845
 H        -0.1455944521       -2.1769051990        3.0576804827
 H         5.1433235022       -0.5438725481        5.3234339422
 H         4.5257940342       -1.8472504337        4.3455469623
 H         0.4471868664        0.6477865400        5.0079946557
 H         1.0109856500        1.1461432837        3.5172845623
 H         1.9208972737        1.5576036009        4.9670860433
 H         2.4951444179       -1.1586062296        6.4153127810
 H         1.1246315568       -1.8140385347        5.6060577477
 H         2.8252248915       -2.2587594920        5.1697646493
 H         6.3036298058        0.2992494758        3.2145570630
 H         6.9414229292       -0.9101743120        4.1286931130
 H         6.4216740348       -1.7427865739       -1.6524411753
 H         5.0604612903       -1.5109452172       -0.7981916155
 H         8.3518557945       -0.2771242882        2.7619615393
 H         9.3692093108       -1.3493473235        1.6214779828
 H         8.4614720386       -1.9172694486        3.1094910766
 H         6.8901129039       -3.4926909657        0.0154271944
 H         8.5454227308       -3.1778081866        0.6851767638
 H         7.1920997719       -3.8833687277        1.6482823103
 H         5.2831335502        0.0035142212       -2.7514334190
 H         6.7257906268        0.8052173520       -2.1330277486
 H         3.9779744367        5.3469239446        0.0440469431
 H         3.6512881478        5.5306152679       -1.6450665136
 H         5.8385966485        3.5028457378        0.4374122303
 H         6.1324050374        4.5132671005       -1.0088495708
 H         6.8680588957        2.8162333130       -0.8060890761
 H         4.1918482969        2.4500614176       -3.4735243450
 H         4.8069196663        3.9819806983       -3.3574450720
 H         5.9202000930        2.7199535159       -3.4010835353
 H         1.5858549462        6.3624148369       -0.4577574499
 H         1.1200918784        4.6511689130       -0.8992153513
 H        -1.5372950035        7.4359166242        2.9394658866
 H        -2.4954006179        7.4768718005        1.3662074764
 H        -2.3998291457        6.0259714739        2.2131993376
 H         1.2550225436        4.7746137641        3.5249610488
 H        -0.4199933649        4.5773186267        3.4630458209
 H         0.1786673937        6.1053555958        4.0612552259
 H         1.7950455044        7.5755948867        1.0536606077
 H         0.9683179763        8.0372535202        2.5589478745
 H         2.3887453903        6.9044120694        2.6120763094
 Na        2.7094793281        1.6485328716        1.2416453830
