155

 C        -9.5843364115       -5.8877363709        0.8933418666
 C        -9.3489773245       -4.5752900974        0.1148764934
 C       -10.2066608549       -4.2367196377       -1.1436757838
 C        -9.7691926686       -2.9537062010       -2.0107164120
 C        -8.3951762629       -3.0462722659       -2.5954248353
 C       -10.1259553205       -5.3991047193       -2.1370452896
 C       -11.6351751442       -3.9774362209       -0.5919996122
 O        -8.4697770587       -3.8012388057        0.4511734585
 O       -10.5478733140       -2.1827821705       -2.3964633328
 C        -7.7394161162       -1.6197279485       -2.8016161617
 C        -6.6820533889       -1.4794525669       -3.9665388973
 C        -6.3541403211        0.0336339569       -4.3381418376
 C        -5.7860023601        0.6894515163       -3.0769701952
 C        -4.3771816505        0.2597327044       -2.5171243393
 O        -6.1323565027       -2.4124696638       -4.5000071418
 O        -6.3876125893        1.5133110221       -2.4559183548
 C        -5.3236338251        0.0266451210       -5.5096803624
 C        -7.6507111168        0.7211229725       -4.8966616136
 C        -3.6460312488        1.4705305908       -1.8766554372
 C        -2.3300586553        0.9536741031       -1.2037975619
 C        -0.9333472304        1.3934679802       -1.8722376360
 C         0.1559436550        0.8501520000       -0.8930218480
 C         0.9103941767       -0.4663908018       -1.3354330848
 C        -0.9210619907        0.7722879265       -3.2420703476
 C        -0.7477185832        2.9456654826       -1.7711008155
 O        -2.3737216666        0.1340826413       -0.2982923725
 O         0.4062468091        1.3454747377        0.1830841146
 C        -0.1754780535       -1.5871589145       -0.9132043393
 C         0.2934455420       -3.0014606556       -1.1409238440
 C        -0.5766925909       -4.0958097967       -0.3359794446
 C        -0.4328406158       -3.7592963008        1.2028546091
 C         1.0567305389       -3.4144270701        1.6135670818
 O         1.2015871286       -3.2621340236       -1.9644576230
 O        -1.2890665057       -3.6740665215        2.0425896002
 C        -2.1587168519       -3.8984325733       -0.5891321890
 C        -0.1726394519       -5.5039835767       -0.6940809498
 C         1.1556726713       -2.7516665676        3.0510100032
 C         1.4847972885       -1.2552341887        2.9833810365
 C         2.0342354546       -0.4266947214        4.2543423774
 C         3.4504489340       -0.0246688548        3.8352764720
 C         4.6672873854       -0.7657128640        4.4392445277
 C         1.1279853071        0.8066003863        4.3382508611
 C         1.8123984387       -1.2614309334        5.5124714766
 O         1.2577985925       -0.5692563314        2.0241968352
 O         3.5959801832        0.9099559087        3.1205498329
 C         5.9946038180       -0.6348883805        3.7024286327
 C         6.0742708841       -1.5015933434        2.3585104263
 C         7.4128015740       -1.6329724026        1.3840665572
 C         7.1750835689       -0.5022172606        0.2768674843
 C         6.1715033802       -0.8945954087       -0.9048267270
 O         5.0419045213       -2.0825690141        2.0919704471
 O         7.5820341915        0.6216175470        0.3972132563
 C         8.6173294172       -1.6188230992        2.2150959814
 C         7.3097519910       -2.9362010576        0.6793752255
 C         5.6628755156        0.3464336878       -1.6529293001
 C         4.8317827834        1.3497951536       -0.8342889323
 C         4.7993298514        2.8346443452       -1.2620232994
 C         3.2590254392        3.3423386566       -1.2571877743
 C         3.0907292233        4.7875671125       -0.6421291077
 C         5.7213344504        3.6361065527       -0.2670459832
 C         5.3431361846        2.9777866195       -2.6975158285
 O         4.1804295322        0.9989124262        0.0872044129
 O         2.4235442744        2.6884417975       -1.8687116636
 C         1.6005025544        5.2541812188       -0.2389169977
 C         1.4960542344        5.0913877315        1.2404216128
 C         0.5657789178        6.1295672597        2.1166800271
 C        -0.8673188389        6.2746274632        1.3680172504
 C        -2.1269801857        6.6686248907        2.1262403194
 O         2.0128384999        4.1322135206        1.8194715296
 O        -0.8851906866        6.0819847238        0.1988943916
 C         0.5759904571        5.4500391664        3.4261575345
 C         1.3183226329        7.5222829466        2.2377909975
 H        -9.1200306150       -5.7425280366        1.8920628475
 H       -10.5859233827       -6.1448148968        0.8768931329
 H        -8.9011097055       -6.7035628058        0.5254823566
 H        -7.7124958455       -3.5917441078       -1.8254703565
 H        -8.4859464493       -3.5560821858       -3.6205885579
 H       -10.3710681439       -4.9846225131       -3.0906491318
 H       -10.8676582824       -6.1221487769       -1.8302156815
 H        -9.1325930840       -5.7886908435       -2.1141320999
 H       -11.6576040612       -3.4890431948        0.3566866987
 H       -12.1769129664       -3.2797748961       -1.2904904829
 H       -12.1582981477       -4.9041865313       -0.5350370038
 H        -8.4938363736       -0.8664123064       -2.8937221371
 H        -7.2913849881       -1.2939446270       -1.8900117378
 H        -4.4991391616       -0.5105868613       -1.8249179486
 H        -3.8204321147       -0.3028117796       -3.2901767527
 H        -5.6547998915        0.5474804944       -6.4003257000
 H        -5.1216317555       -1.0105985265       -5.8400515385
 H        -4.3774219589        0.4183689332       -5.3410021031
 H        -8.5251782846        0.6051738559       -4.2564942481
 H        -7.7795152833        1.8297323815       -4.9637950286
 H        -7.8282021606        0.1971855663       -5.8581368041
 H        -4.3378736635        1.8562655988       -1.1263209170
 H        -3.5526834830        2.2565777763       -2.6615748680
 H         1.2250680249       -0.5119903410       -2.4219793835
 H         1.7631065998       -0.5360559826       -0.6564051925
 H        -1.2515793102       -0.1867523541       -3.3008816789
 H         0.0840322294        0.7966406741       -3.6327499321
 H        -1.5210898964        1.4064323288       -3.9164758199
 H        -1.6705267234        3.4631075751       -2.1006189109
 H        -0.4463913591        3.1755369909       -0.7160020085
 H         0.0206907444        3.2344590835       -2.4871409224
 H        -0.2328938982       -1.4254273858        0.1368273062
 H        -1.1984774890       -1.2719619273       -1.3437887184
 H         1.6254287255       -4.2991558379        1.7176706023
 H         1.6508312619       -2.8156513639        0.8903772407
 H        -2.7310479621       -4.3952733558        0.2371079068
 H        -2.4068995515       -4.3800429455       -1.4930734860
 H        -2.4628385854       -2.8815447101       -0.6637195253
 H         0.0380381769       -5.5624992267       -1.7234171974
 H         0.8334992911       -5.7798512745       -0.2805386409
 H        -0.9232417448       -6.2345883818       -0.4619038854
 H         2.0453355704       -3.1643300397        3.6332064530
 H         0.2131305962       -2.8309784835        3.5501273565
 H         4.7695417059       -0.3862457875        5.4524894281
 H         4.5209536477       -1.8988267379        4.5547293152
 H         0.1309750974        0.7190687916        3.8279561822
 H         1.4895430388        1.8371508644        4.0063117278
 H         0.8289748852        1.0191700298        5.4115620445
 H         1.8873654038       -0.6092059393        6.3114571937
 H         0.7605279800       -1.6212679632        5.4995915731
 H         2.5353871484       -2.0651139711        5.7252865927
 H         6.4779285162        0.3686293272        3.4379786213
 H         6.8505407893       -1.0196326256        4.3258878708
 H         6.5911925358       -1.6460706836       -1.5562767076
 H         5.3255653614       -1.5130613438       -0.4571432563
 H         8.6548022772       -0.6129120722        2.7551399743
 H         9.5810473516       -1.6869395890        1.6072251887
 H         8.6673768228       -2.3489875611        3.0231744423
 H         6.2205426651       -3.1164937411        0.4858824698
 H         7.8487981247       -3.0434093653       -0.2701804804
 H         7.5888969906       -3.7805315583        1.2689888225
 H         4.9668152565        0.0469967056       -2.5946632379
 H         6.5165521404        0.8464203046       -2.1261160948
 H         3.8603122462        5.1241680241       -0.0034915196
 H         3.2794055962        5.3480871779       -1.5521121046
 H         5.2742520361        3.7376555782        0.7365441979
 H         6.0759075111        4.6079354723       -0.7524273646
 H         6.6774724478        2.9909203357       -0.2681606805
 H         4.6285258999        2.6521572643       -3.3609809692
 H         5.4726121584        3.9847291292       -3.0872175001
 H         6.2835741031        2.4173476797       -2.8343794333
 H         1.3273641009        6.2552175490       -0.4847069044
 H         1.0126744662        4.4904431271       -0.7951024021
 H        -1.9992014520        7.6656792757        2.6521003765
 H        -3.0124053423        6.6122841502        1.4705084358
 H        -2.2565338853        5.8434277856        2.8598685552
 H         1.5954628793        5.3015767195        3.8406310810
 H        -0.0329694974        4.5175277967        3.3842438170
 H         0.0713323084        5.9712249029        4.1868979774
 H         1.4300886623        7.9378042857        1.2665557523
 H         0.7841596431        8.1770650802        2.8529447461
 H         2.3466653180        7.2905367862        2.6114465892
 Na        2.3467545933        1.6454183328        1.5290074286
