155

 C        -8.4505414558       -7.0227441085       -0.6511366776
 C        -8.4350088055       -5.6543126921       -1.2548278006
 C        -9.5697085191       -4.9757201660       -2.0975718864
 C        -9.4348258730       -3.3820604334       -1.8780668095
 C        -8.1219672166       -2.5886482906       -2.2805563747
 C        -9.4929230893       -5.4212216691       -3.6101248337
 C       -10.9827130758       -5.3908188891       -1.5547756487
 O        -7.4331025852       -4.9692168590       -1.0864554928
 O       -10.3626942248       -2.8072083327       -1.3152520198
 C        -8.4421526419       -1.7399862405       -3.5181386991
 C        -7.1389804228       -1.1914886661       -4.2302153603
 C        -7.2019477860        0.2245544971       -5.0757040625
 C        -6.1741393473        1.2221459906       -4.5132674591
 C        -4.6525908738        0.6783513246       -4.3442321163
 O        -6.1262307396       -1.8493114219       -4.3259309052
 O        -6.4670131166        2.3568860864       -4.3258848062
 C        -6.9316017261       -0.1396358935       -6.5392607701
 C        -8.5361557558        0.9048361261       -4.9433774072
 C        -3.7637380922        1.6548305257       -3.5760624167
 C        -2.4770874070        1.0127213488       -2.8345646279
 C        -1.1896456875        1.8655677848       -2.6106599518
 C        -0.1838436019        1.2215465950       -1.5941809369
 C         0.3714890703       -0.1570064865       -2.0580671973
 C        -0.4114662723        2.0574711097       -4.0143043147
 C        -1.6234246975        3.2742558770       -2.0146119504
 O        -2.5890492895       -0.0956859847       -2.4079679347
 O         0.1079536769        1.7655199700       -0.5604472397
 C         0.0678033150       -1.0982516030       -0.8112339229
 C         0.3985034155       -2.6027121970       -0.8827320549
 C        -0.1846514974       -3.6084103458        0.2783321165
 C         0.1880444619       -2.9672173450        1.6118980712
 C         1.5108019450       -3.4005088775        2.1860594124
 O         1.0720082585       -3.0297611110       -1.7923619928
 O        -0.5831053092       -2.2285489710        2.2056853844
 C        -1.7249099476       -3.7201340563        0.1403202189
 C         0.5314751573       -4.9205942358        0.0880886591
 C         1.7526693406       -2.5856029903        3.4296986086
 C         1.9824769480       -1.1610736531        3.1120691395
 C         2.4272315807       -0.1102436461        4.3583273979
 C         3.6694475626        0.6776806281        3.7772177782
 C         4.8434271246        0.8513475264        4.6791124770
 C         1.2325841841        0.8687922759        4.6276342584
 C         2.7262337901       -0.8497457079        5.6119945079
 O         1.6514639419       -0.5954046460        2.1123438518
 O         3.5260525923        1.4617534675        2.8281908893
 C         6.1245222128        0.6777333186        3.8603667487
 C         6.0368035555       -0.6829701309        3.1664894305
 C         7.3074843794       -1.4560906954        2.4486335676
 C         7.4190328076       -0.4590284937        1.2197839091
 C         6.6595142008       -0.7464257021       -0.0334902417
 O         4.9978895645       -1.3210128073        3.1733674435
 O         8.0216349662        0.5331309514        1.3355442593
 C         8.5240865508       -1.3721997717        3.3415161271
 C         7.0106853530       -2.9342629831        2.1172822233
 C         6.3636371912        0.3987157867       -0.9905504366
 C         5.0331604168        1.1738956639       -0.6704805563
 C         4.9941372604        2.7133409980       -0.7231574676
 C         3.3881510501        3.2239719176       -0.5870950789
 C         3.1020658753        4.1337390794        0.6454673910
 C         6.0096179738        3.3262089895        0.3404919257
 C         5.5052282751        3.2049258269       -2.1336610517
 O         4.1110373282        0.5284832565       -0.1796406323
 O         2.4815386854        2.9231630786       -1.3174698171
 C         1.8182935019        4.9873090720        0.8958934844
 C         0.8648551226        4.1930085680        1.8668311064
 C        -0.3248746644        4.9651230205        2.8033878468
 C        -1.6941877553        4.9693018910        2.0849157130
 C        -2.9844205100        5.2569837578        3.0373704988
 O         0.9702253234        3.0120631211        1.9336533308
 O        -1.9036070713        4.7521201757        0.9296774779
 C        -0.3501566730        4.2570887381        4.1545127690
 C         0.1015281359        6.3982983628        3.0048645999
 H        -7.4860174793       -7.4169486184       -0.6387892540
 H        -8.8532148876       -6.8681386739        0.4150207395
 H        -9.0775741689       -7.7775713150       -1.0757058526
 H        -7.7679451395       -1.9230430991       -1.3978271120
 H        -7.1653460710       -3.2642316154       -2.4813668241
 H       -10.3799731954       -5.1520973279       -4.1322979697
 H        -9.3088502815       -6.4710256409       -3.5302655121
 H        -8.5911620436       -5.0399423210       -4.0838603963
 H       -11.1256027754       -4.8201889755       -0.6617984155
 H       -11.7662892996       -5.1270815413       -2.2988692860
 H       -11.0604416400       -6.3979494439       -1.2474630095
 H        -8.9812731614       -2.3193472552       -4.2411130751
 H        -9.1452162691       -0.8720414873       -3.2938406468
 H        -4.7116215937       -0.3264090237       -3.9344431839
 H        -4.3660332553        0.3998158560       -5.4072125722
 H        -6.3080897383        0.5913756932       -7.1036657997
 H        -7.8881216264       -0.3629512922       -7.0152508893
 H        -6.3487093302       -0.9824935065       -6.4600848586
 H        -8.4117422722        1.9092926974       -5.3307665959
 H        -9.3838381442        0.2945869746       -5.3737701933
 H        -8.7602679196        1.0636205429       -3.8375135636
 H        -4.3934000353        2.1297745877       -2.8478675535
 H        -3.5341428058        2.4595022717       -4.3364453792
 H        -0.0795975029       -0.6040372520       -2.9308045679
 H         1.4265731814       -0.2713694801       -2.1120518089
 H         0.1093322813        1.0957685271       -4.4279783792
 H         0.2868404624        2.8723418897       -4.0669390791
 H        -1.2731078410        2.1762752098       -4.7195528794
 H        -2.4542935359        3.7641196794       -2.5698154359
 H        -1.9808987262        3.1973588628       -0.9528901722
 H        -0.8363309858        4.0186208232       -2.0016154944
 H         0.6812955380       -0.6586262889        0.0365200791
 H        -1.0291270489       -0.9915729119       -0.5647045273
 H         1.4055064945       -4.4250633038        2.5627944790
 H         2.3407117615       -3.2539716350        1.4385559080
 H        -2.2175632634       -4.1875599798        1.0141768366
 H        -2.0237250833       -4.2829233573       -0.7595221131
 H        -2.1035052508       -2.7581183686       -0.0105255640
 H         0.0408857167       -5.3342445375       -0.7725478945
 H         1.5603862464       -4.7838783431       -0.0846789819
 H         0.3309340781       -5.6012236919        0.9137955527
 H         2.5970195670       -2.9053817663        3.9882156848
 H         0.9074994595       -2.4503406809        4.0945413603
 H         4.8380546902        1.7722652590        5.2258764893
 H         4.7105585201        0.0724364319        5.5438056407
 H         0.3353694830        0.3826740217        5.0678541811
 H         0.9471618776        1.3779455351        3.7067727617
 H         1.6284333848        1.7199237911        5.2803518759
 H         2.7304820022       -0.1604280186        6.4168609341
 H         2.0644602437       -1.6007577860        5.9742985626
 H         3.6785079625       -1.3849716161        5.5215853130
 H         6.2539801604        1.4494595729        3.0880380532
 H         6.9723959113        0.8468747124        4.5370402289
 H         7.2173154492       -1.4103846847       -0.6999121449
 H         5.7606066015       -1.3148977500        0.1931051232
 H         8.7880025143       -0.2981144589        3.5381218011
 H         9.4960844463       -1.6643822551        2.8696735163
 H         8.4532015414       -1.9926525619        4.2349360808
 H         6.2220046104       -2.9500052142        1.3195436679
 H         7.8732847126       -3.5281707528        1.7926438658
 H         6.5737315949       -3.2435845081        3.0389168592
 H         6.2216711575       -0.0931529750       -2.0228921198
 H         7.2252814191        0.9865470057       -1.3116303405
 H         3.3490472914        3.5737154669        1.6468357029
 H         3.8880146180        4.9139717436        0.6015716799
 H         5.4526973353        3.3379872231        1.3570847042
 H         6.3519672890        4.3804826257        0.1304506648
 H         6.8577052935        2.6453180009        0.5865763576
 H         4.9321389569        2.7380572814       -2.9964121387
 H         5.4402248614        4.2831578389       -2.1446988239
 H         6.4846901097        3.0240636480       -2.3882225398
 H         2.1765157227        5.8862074052        1.3688844444
 H         1.1654758803        5.3178392461        0.0520210775
 H        -2.6712075009        5.8889954196        3.9136776158
 H        -3.8125711002        5.8647053004        2.5801219703
 H        -3.5310467158        4.4319746812        3.3932034974
 H         0.6960656941        4.3849759058        4.6035112255
 H        -0.5283758134        3.2409846677        3.9213572062
 H        -1.1501435794        4.6729446808        4.7482968328
 H         0.5127003650        6.8613908905        2.1332103136
 H        -0.5694466954        7.0726373310        3.4465190177
 H         0.9285291990        6.3510721523        3.7622198066
 Na        2.2616103937        1.3240367701        0.8623173610
