155

 C        -8.2646048487       -7.2033049284       -0.9860167659
 C        -8.1711341497       -5.7295793439       -1.4456861251
 C        -9.4198973619       -5.0078971631       -2.1485422251
 C        -9.4514979454       -3.3614583034       -2.0765452463
 C        -8.2318988882       -2.7022491359       -2.7145410023
 C        -9.2256412945       -5.2815239115       -3.6743259709
 C       -10.7405212985       -5.5737663138       -1.4960883144
 O        -7.0776037889       -5.2248916433       -1.5231136456
 O       -10.3407498477       -2.7676535685       -1.6020311110
 C        -8.3663490497       -1.2817689353       -3.2881290845
 C        -7.1932647516       -1.0342465640       -4.2708260625
 C        -7.1871405993        0.2331057529       -5.1463107947
 C        -6.0274886166        1.1425408452       -4.4490818351
 C        -4.6005636507        0.6628524020       -4.4284884694
 O        -6.2070467624       -1.7471671228       -4.2492205144
 O        -6.4466080005        2.1042813544       -3.8732865173
 C        -6.8058495207       -0.2571290150       -6.5402297254
 C        -8.4894204754        1.1189744335       -5.1179048388
 C        -3.6792352220        1.5831840354       -3.7977091782
 C        -2.5161717726        0.9019897875       -3.1046668973
 C        -1.2603952037        1.8366427298       -2.5840409198
 C        -0.4194393589        1.0995996442       -1.6097622589
 C         0.2120199764       -0.3164588071       -1.9061611786
 C        -0.4142499172        2.0825856597       -3.8484823130
 C        -1.8572894394        3.0780969662       -1.9383576651
 O        -2.5286348203       -0.2903168862       -2.9912697819
 O        -0.0568752208        1.6937827741       -0.5960808951
 C        -0.3125014069       -1.2905156354       -0.8235705793
 C         0.2461562004       -2.6840782002       -0.8660538603
 C        -0.2556890902       -3.7285370621        0.3657756006
 C         0.2004937743       -3.0988999239        1.6511373548
 C         1.5910769165       -3.3629483953        2.1701813271
 O         1.1105083754       -2.9815946201       -1.6277622495
 O        -0.5469750474       -2.2871150970        2.1949307324
 C        -1.7780659185       -3.9298483817        0.2142629300
 C         0.4315535641       -5.0062956222       -0.0069400121
 C         1.9979704310       -2.5430578990        3.3541984243
 C         2.0476932420       -1.0386933434        3.1701843276
 C         2.3148396751       -0.0232603431        4.4247097251
 C         3.6195982691        0.8473253403        3.8640316107
 C         4.9158020647        0.8060696401        4.8426490646
 C         1.0873265190        0.8654255658        4.5034745041
 C         2.5286660295       -0.5821321163        5.8658818555
 O         2.0746436297       -0.5363209140        2.0952886923
 O         3.4928464255        1.5624863510        2.8863411918
 C         6.1716799565       -0.0320523707        4.4778031080
 C         6.0439416407       -1.0598174413        3.3210755563
 C         7.4633556138       -1.3708903966        2.5578345038
 C         7.2807545879       -0.2406134356        1.3776640749
 C         6.5514099624       -0.5096968665        0.1169554948
 O         5.0727021306       -1.7426845693        3.0681632622
 O         7.7770221490        0.8671619352        1.4477183620
 C         8.7193294947       -1.1007191510        3.3957726699
 C         7.4073657783       -2.7408086540        1.8486952150
 C         6.2093228422        0.7579373681       -0.6728994433
 C         4.8974429267        1.5412847557       -0.3036703510
 C         4.8458909016        3.0573546218       -0.5696627005
 C         3.4114094730        3.4575751329       -0.3201595018
 C         2.9135528658        4.4711654475        0.7849705150
 C         6.1055256228        3.8029179022        0.1531553712
 C         5.0726399175        3.1262715966       -2.0671592193
 O         3.9163757131        0.8767754831        0.1069705535
 O         2.5683119261        2.8935667113       -1.0205793850
 C         1.4026680269        4.7114443939        0.8368432003
 C         0.7756349034        4.0402930075        2.0900231745
 C        -0.2521763733        4.9400789367        2.8017678247
 C        -1.5087557518        5.0128341203        1.8039846628
 C        -2.8806252363        4.8140732093        2.3485044740
 O         0.9421215547        2.8337957523        2.2850661281
 O        -1.2225247182        5.1213659076        0.6302685547
 C        -0.5828996838        4.2676597365        4.2041048015
 C         0.3663449838        6.3236272139        2.9952928562
 H        -7.3187949721       -7.7342395359       -1.0438425949
 H        -8.4383193898       -7.1793726588        0.1564710156
 H        -9.0859838600       -7.7209684103       -1.3958996341
 H        -7.3427586847       -2.7130158990       -1.9386349192
 H        -7.7729168190       -3.4203675028       -3.4518720765
 H        -9.8499747678       -4.6696767433       -4.3110521345
 H        -9.5522669552       -6.2970327259       -3.7100640746
 H        -8.1761238887       -5.2496435925       -3.9993551391
 H       -10.6371244887       -5.7031636537       -0.4001286123
 H       -11.4295004083       -4.6930773936       -1.5793830696
 H       -11.2055025682       -6.4182817866       -1.9661720039
 H        -9.3313405413       -1.0790994056       -3.6844857194
 H        -8.3547077787       -0.4186607180       -2.5340913386
 H        -4.7649830852       -0.2355215805       -3.7877436496
 H        -4.4526806896        0.0284636773       -5.3460614468
 H        -7.4527295281        0.2061316100       -7.3005647781
 H        -6.8677378033       -1.3615450288       -6.5975835140
 H        -5.7748117683       -0.0309330860       -6.7331424710
 H        -8.5244614349        1.7387837519       -5.9709079513
 H        -9.4140518760        0.5227267463       -5.1469372937
 H        -8.5336977189        1.5246901168       -4.0997464001
 H        -4.2182912138        2.2220875468       -3.0619544686
 H        -3.2524756106        2.3035011742       -4.5720149536
 H        -0.0984963646       -0.7348886929       -2.8268256487
 H         1.3059737452       -0.1905475917       -1.9496414373
 H        -0.1127652076        1.1019471963       -4.3810331359
 H         0.5125783094        2.4679093580       -3.5715168718
 H        -0.9255810743        2.8031226361       -4.4384673808
 H        -2.4870470290        3.7558158639       -2.5377596248
 H        -2.4658557248        2.8580283281       -1.0617650338
 H        -1.0525801181        3.6554057373       -1.5743684200
 H         0.0162931911       -0.8380037046        0.2233986804
 H        -1.4041364396       -1.2195996164       -0.9363822261
 H         1.5296661535       -4.4088702635        2.5399043660
 H         2.3350693081       -3.3902094225        1.2850572973
 H        -2.3009427197       -4.1844646382        1.1442591158
 H        -2.0532318012       -4.6974551520       -0.5747480880
 H        -2.2372491024       -2.9945718681       -0.0657592870
 H         0.2430261713       -5.1549245233       -1.0949383251
 H         1.4372463845       -4.9987003038        0.2210489007
 H         0.0288699643       -5.8360992094        0.5711617605
 H         3.0104186378       -2.7278343306        3.6972083110
 H         1.3891519140       -2.6953914809        4.2290966277
 H         5.1994251109        1.8490109512        4.6659305442
 H         4.4465097271        0.5549366827        5.7991362023
 H         0.2865437537        0.1101073868        4.7543650306
 H         0.9241690171        1.4770065004        3.5703665409
 H         1.0274704840        1.6605573067        5.3420107505
 H         2.3891397826        0.1017562786        6.7150026021
 H         1.8344426861       -1.3915449535        6.0450733187
 H         3.5181910988       -1.0512149575        5.8822259468
 H         6.9408337093        0.5625387320        4.0889818838
 H         6.6034307681       -0.4404317967        5.3475913017
 H         6.9427231250       -1.3467232687       -0.4781094771
 H         5.5195350856       -0.8525530529        0.2919407966
 H         8.8745616476       -0.0143628763        3.3645737280
 H         9.5963343356       -1.5484087736        2.8933566597
 H         8.7188345221       -1.4255908288        4.4808856035
 H         6.3549265339       -2.9440349362        1.7207804913
 H         7.9815473878       -2.7503096094        0.9405908428
 H         7.7813343151       -3.4128824913        2.5823713161
 H         6.0468034246        0.4507031669       -1.7386216521
 H         7.0578272103        1.4757710989       -0.9299293461
 H         3.2818525784        3.8641964032        1.7043404985
 H         3.6170529354        5.3282660701        0.7912053888
 H         6.5646893701        3.1370300544        0.9540200137
 H         5.8285566056        4.8177521261        0.4536896841
 H         6.8515287365        3.9635908687       -0.6164121312
 H         4.4194151433        2.6035231067       -2.7466253355
 H         5.2767782829        4.1419482529       -2.3075293318
 H         5.9606944910        2.6066139877       -2.2658786741
 H         0.9986492384        5.7398015681        0.7211203746
 H         1.0311155609        4.0749647125       -0.0845770139
 H        -3.2949986655        5.6428410306        3.0135956727
 H        -3.5763814416        4.8213854953        1.4542190436
 H        -3.1065729909        3.8902265300        2.8616770246
 H         0.3886924387        3.9447074835        4.6964977770
 H        -1.0842405124        3.3766568028        4.0008825159
 H        -1.1560004229        5.0657693299        4.7071663250
 H         0.3663956293        6.9140310603        2.0819723142
 H         0.0690283631        6.9438909449        3.8195492659
 H         1.4513883886        6.1871695920        3.1902905819
 Na        1.8146483905        1.2205721004        0.7543146619
