155

 C        -8.0882114009       -7.5703522209       -1.7221735327
 C        -7.9317001807       -6.0499221703       -1.9245445118
 C        -9.1619288640       -5.3022588383       -2.5778176638
 C        -8.8528653597       -3.7791484839       -2.8149710692
 C        -8.0148651456       -3.3040855907       -3.9671410080
 C        -9.5281855353       -5.9699558636       -3.9090690871
 C       -10.1925053917       -5.3421393387       -1.4886003700
 O        -6.9831141971       -5.4412541830       -1.4520661393
 O        -9.3693549109       -2.9504287932       -2.0471329433
 C        -7.9957416001       -1.7762912086       -4.0514560655
 C        -6.8155834517       -1.1476801364       -4.7342358151
 C        -6.8245389755        0.4431828784       -4.8604572201
 C        -5.7541743047        0.9606819232       -3.8977979078
 C        -4.4104092395        0.2898984625       -3.8443115968
 O        -5.8183311219       -1.6887665238       -5.1632208866
 O        -5.9583244313        1.9889350782       -3.2504571449
 C        -6.3226923000        0.9284556768       -6.3450255787
 C        -8.1803753985        1.1235824079       -4.4656210688
 C        -3.3627857756        1.3693526827       -3.4704277840
 C        -2.0468191007        0.7453889517       -2.9447362501
 C        -0.9083928607        1.8051302707       -2.5756494275
 C        -0.1930071067        1.0729059690       -1.3143802547
 C         0.4060912732       -0.3059785176       -1.4187565970
 C        -0.0195065160        1.9371162735       -3.7711970844
 C        -1.5007231252        3.1316902893       -2.0868231118
 O        -1.8093465042       -0.4274419112       -2.9511520954
 O        -0.2093484443        1.6157811095       -0.2081989131
 C        -0.3533284222       -1.3676195416       -0.5365861803
 C         0.3074955266       -2.8406990316       -0.6320580578
 C        -0.3498919596       -4.0392022134        0.3280819118
 C         0.3130926525       -3.8642935541        1.7475287491
 C         1.8231080535       -3.9351088109        1.9125351232
 O         1.2854615562       -2.9195553287       -1.3337832737
 O        -0.4415397425       -3.8359312903        2.6826898418
 C        -1.8988889359       -3.7481840702        0.4761077399
 C        -0.0334627009       -5.3942493484       -0.3391526789
 C         2.3299746349       -3.1047801219        3.0162802914
 C         1.9997472503       -1.5478422918        3.0819010607
 C         2.3036018919       -0.6716344784        4.3369984883
 C         3.3490180565        0.4608105856        4.0501851765
 C         4.5856473802        0.6489933269        4.9413373277
 C         0.8809415451        0.0209064905        4.4546520486
 C         2.7053933826       -1.5015841137        5.5547253906
 O         1.5888897063       -1.0704785904        2.0387989308
 O         2.9874961566        1.2832045330        3.2172333093
 C         5.7314990365       -0.4051899218        4.9284569443
 C         6.0912535859       -1.1304660397        3.6561018370
 C         7.3093480669       -0.6771173066        2.8033382956
 C         6.8961698242        0.4070849010        1.7450471251
 C         6.4997423716       -0.0620878349        0.2696502677
 O         5.3398911886       -1.9226564121        3.1971191232
 O         6.9854811453        1.6170671470        2.0459951390
 C         8.4538167877       -0.1720556761        3.6336220983
 C         7.7171965555       -1.9692429044        2.0879943623
 C         6.2028955815        1.2845818754       -0.5968151288
 C         4.8038825694        1.7308787415       -0.2864423418
 C         4.5110437203        3.4352572580       -0.5404233827
 C         2.9657419374        3.6665617802       -0.3163889154
 C         2.5715427140        4.8195829952        0.4720259790
 C         5.3507608208        4.3220390963        0.4622166728
 C         4.8418450923        3.7054738848       -2.0877423129
 O         3.9690500235        1.1082232087        0.2570893417
 O         2.1669587966        2.8879411995       -0.7914445726
 C         1.0613566002        5.0790247356        0.4501963440
 C         0.3325525625        4.4914450518        1.7228151671
 C        -0.6651113846        5.4203543012        2.5239312549
 C        -1.6777229080        5.9286098934        1.4461248732
 C        -2.6230598444        4.8582200160        0.9149766264
 O         0.3785265688        3.2949300515        1.9319907257
 O        -1.5648585266        7.0148503262        0.9598237595
 C        -1.2188126794        4.3937948522        3.6578715640
 C         0.1511303581        6.6170878438        3.0993856591
 H        -7.2666119569       -8.1486791997       -2.1893364333
 H        -8.0203377116       -7.7271036481       -0.7134251785
 H        -9.0055817563       -8.1340118614       -2.0444595472
 H        -7.0786073836       -3.6459081678       -3.7858552110
 H        -8.3680857103       -3.7537808244       -4.8778140791
 H       -10.4389888614       -5.6073415136       -4.4146318557
 H        -9.6494000576       -7.0471502163       -3.8790084189
 H        -8.7549864773       -5.8780059604       -4.6726068527
 H        -9.9188051196       -4.6638466553       -0.6588629412
 H       -11.1451709630       -5.0711810899       -1.8547021654
 H       -10.3143000037       -6.3590338726       -1.0319005752
 H        -8.8729060947       -1.4187367298       -4.5515786749
 H        -7.9131903362       -1.4007722364       -2.9922144244
 H        -4.5431620994       -0.3773692636       -3.0164906868
 H        -4.1569051304       -0.0984502339       -4.7691930283
 H        -7.1595994497        1.2873386948       -6.8480115807
 H        -5.9611574916        0.1339344019       -7.0108476616
 H        -5.4986871798        1.6754457671       -6.3566835568
 H        -8.1450807866        2.2784336085       -4.4727089429
 H        -9.0048584669        0.7644995047       -5.1165843733
 H        -8.5264802367        0.8926531415       -3.4375658887
 H        -3.8443433906        2.0773102427       -2.8162614442
 H        -2.9735071783        1.8988803760       -4.3080242185
 H         0.6310391591       -0.6988319890       -2.3897646925
 H         1.3627704220       -0.0223120251       -0.8700909589
 H         0.1828922835        0.9922064174       -4.2047082780
 H         0.9334997720        2.5595045755       -3.6161856029
 H        -0.7389499474        2.3886336869       -4.4966253880
 H        -2.0261104448        3.6409043645       -2.9244323704
 H        -2.2141719247        2.9908135177       -1.2716284287
 H        -0.6854803430        3.8244729884       -1.7821210976
 H        -0.4733083976       -1.0261086635        0.5000215480
 H        -1.3810872622       -1.4847996571       -0.8204690288
 H         2.1882140436       -4.8999541405        1.9400469946
 H         2.1592376362       -3.5784056480        0.9307283512
 H        -2.2576183189       -4.4965491186        1.1250622173
 H        -2.4330330791       -3.7454456000       -0.4712538259
 H        -2.0859702983       -2.7433634843        0.9824265712
 H        -0.5584993532       -5.4371554557       -1.2538329076
 H         1.0333699090       -5.5059816619       -0.5811780507
 H        -0.3270039599       -6.2698654529        0.1272723870
 H         3.4612242257       -3.1774299687        3.0870801444
 H         1.9053495437       -3.4477242003        3.9412312902
 H         5.0727795368        1.6690159508        4.5878409473
 H         4.2769728982        1.0083088868        5.9236064949
 H         0.0790731719       -0.7535359369        4.4787847685
 H         0.6369956396        0.6146687564        3.5681997020
 H         0.9593153750        0.6100905480        5.3405371731
 H         3.3690314351       -1.0108948181        6.3261319147
 H         1.8481171556       -1.8025557899        6.1026094204
 H         3.1964026438       -2.3661138286        5.2087144441
 H         6.6444540041        0.0698792095        5.4044289282
 H         5.3053145609       -1.2407037314        5.5752901574
 H         7.3333243906       -0.5704658550       -0.1460758268
 H         5.5418402035       -0.5778585398        0.1889941945
 H         8.1524832753        0.7976295979        4.1241528737
 H         9.3495961778        0.0685513382        3.0297559620
 H         8.6797277598       -1.0073779730        4.3395965190
 H         6.8177045194       -2.1975428065        1.5833198642
 H         8.4682027890       -1.6137722045        1.3834256929
 H         8.0567329470       -2.7984999868        2.7773296196
 H         6.2763119147        1.1105863557       -1.6241648016
 H         6.9401004969        2.0951203620       -0.2304722119
 H         2.7777341484        4.6651894163        1.4732534182
 H         3.1318926471        5.7045870481        0.1663658840
 H         4.8861627530        4.3849474610        1.4494928609
 H         5.4556094799        5.3362178253       -0.0754148437
 H         6.3985891873        3.8680720285        0.5369996723
 H         4.1037241334        3.2618102955       -2.7283497449
 H         4.9851526779        4.7804303329       -2.2686758274
 H         5.8633043318        3.2466722284       -2.2709931323
 H         0.7850050640        6.0679239203        0.2284758733
 H         0.5445332383        4.4572410400       -0.2374859850
 H        -3.5830837720        5.2835065756        0.7531801457
 H        -2.4030966675        4.3791014358       -0.0244106200
 H        -2.8402505889        4.0201919496        1.6247612919
 H        -0.4030317899        3.8382091092        3.9440063705
 H        -1.9249361626        3.7423204904        3.0995765188
 H        -1.7250268339        4.9481597407        4.4394355024
 H         0.3951354887        7.3691447697        2.3460958321
 H        -0.3537976514        7.1311396397        3.9590830973
 H         1.0845492186        6.3280695658        3.4700883862
 Na        1.4948514643        1.1964961020        1.4026573052
