155

 C        -7.8356174818       -7.4452392575       -1.8007200121
 C        -7.8131058109       -5.9823523233       -2.0258226356
 C        -9.0636053493       -5.2981466227       -2.6779989403
 C        -8.7345265220       -3.7777314483       -2.8561129266
 C        -8.1666312813       -3.2971637836       -4.2090566735
 C        -9.4963719881       -5.9337797721       -3.9752965835
 C       -10.3068282403       -5.4078649440       -1.7632768613
 O        -6.8881465804       -5.2563250495       -1.7138739289
 O        -8.9910368298       -2.9423289153       -2.0153783310
 C        -8.0516845268       -1.7698984668       -4.0486538097
 C        -6.7619725514       -1.1607608435       -4.7664805707
 C        -6.7679114476        0.4537362342       -4.8409299333
 C        -5.8123692531        0.8994863954       -3.6908865877
 C        -4.4589220089        0.2040057322       -3.4360327893
 O        -5.9163374317       -1.9364362313       -5.2070271472
 O        -6.0607629381        1.8265308446       -2.9264456733
 C        -6.2868401240        0.8295860696       -6.2741949350
 C        -8.1097995133        1.0274319575       -4.5834479445
 C        -3.2772588033        1.2217265688       -3.4594058156
 C        -1.9415942179        0.6378951356       -2.9429993123
 C        -0.7356284267        1.6609650440       -2.6058709534
 C        -0.0258994268        1.0897622778       -1.3042785099
 C         0.6190113691       -0.3151964671       -1.3183620412
 C         0.2639061882        1.6535582299       -3.8506285456
 C        -1.2312412782        3.0246250406       -2.1657312630
 O        -1.8152921991       -0.5813507840       -2.9171043473
 O        -0.1230054978        1.6111163659       -0.2161630467
 C        -0.2528776852       -1.3626494119       -0.5681547811
 C         0.2544879064       -2.7672372588       -0.6343048748
 C        -0.3803796587       -3.8924424713        0.2977611830
 C         0.3658826927       -3.8324786263        1.5874337411
 C         1.9574938386       -3.7712351217        1.6554719680
 O         1.1924022122       -3.1244652281       -1.3439238966
 O        -0.2736058466       -3.9339280474        2.6546324150
 C        -1.9408644810       -3.8155084792        0.4328810088
 C        -0.0798331507       -5.2034787792       -0.4369417359
 C         2.2911952834       -3.2094199085        3.1465603054
 C         2.0568978461       -1.6511129658        2.9847933292
 C         2.1937332639       -0.6275848033        4.2842336165
 C         3.2559028974        0.5124759316        4.0373121758
 C         4.6319667277        0.6841563930        4.7937426216
 C         0.8575287793        0.0920682606        4.4885306517
 C         2.3880032980       -1.4094565023        5.5710519989
 O         1.6053374751       -1.1791033172        1.9660374383
 O         3.0258062341        1.3294573909        3.1895050056
 C         5.5690966780       -0.5691947918        4.9848694299
 C         5.9694088774       -1.1570743033        3.6023701823
 C         7.2404778312       -0.6015661281        2.8229971928
 C         6.9918446497        0.5204763039        1.5851204388
 C         6.5697485859        0.0637346511        0.2302887838
 O         5.2620693938       -2.1060587251        3.1980619327
 O         7.0268546654        1.6858504750        1.9258957217
 C         8.2293172408        0.1390958923        3.7693440245
 C         8.0024297116       -1.8065778712        2.1456125585
 C         5.9964952655        1.2324929726       -0.6291390341
 C         4.6347713644        1.8769382577        0.0077829276
 C         4.3885721756        3.3973036928       -0.3076573556
 C         2.8701858155        3.6126265988       -0.3057413174
 C         2.4255884285        4.9492860388        0.3238811779
 C         5.3638985696        4.1802983005        0.5561756400
 C         4.7533038938        3.6438511836       -1.8376335667
 O         3.8072889651        1.1299441255        0.5176058436
 O         2.0917571503        2.9225725660       -0.9422769485
 C         0.8856581999        5.0749792558        0.4207889220
 C         0.2437859302        4.4541656130        1.7178092727
 C        -0.7143093747        5.4774283703        2.6900564548
 C        -1.7429884052        6.0104007991        1.5676922931
 C        -2.8385587206        5.1456867528        0.9348251233
 O         0.3595390161        3.2645369152        1.9104538584
 O        -1.4447155078        7.1192853702        1.1211338261
 C        -1.3656937860        4.5957378664        3.7659751952
 C         0.0876268094        6.5799793900        3.2175559095
 H        -7.3664020750       -8.0078645264       -2.6028629630
 H        -7.3717519639       -7.7836791341       -0.8014180996
 H        -8.8141729369       -7.8292582127       -1.8198589709
 H        -7.1013952762       -3.7249169656       -4.5461462803
 H        -8.8874806977       -3.5469067136       -5.0418228604
 H        -9.9930577972       -5.2858410278       -4.7062584884
 H       -10.2620135942       -6.7254410550       -3.8280342216
 H        -8.7578839559       -6.4610825629       -4.6040083477
 H       -10.0363409889       -5.0960793655       -0.7550155095
 H       -11.0962436011       -4.6607591814       -2.0391883601
 H       -10.7795887567       -6.3530097100       -1.7860532726
 H        -8.9832236866       -1.3580101620       -4.4757492986
 H        -7.9987535394       -1.4822550478       -3.0421887889
 H        -4.5084350086       -0.2550992741       -2.4394915729
 H        -4.2483898877       -0.4041505476       -4.3768288749
 H        -6.3194556277       -0.0330666042       -6.9782077175
 H        -5.2715532355        1.2016919353       -6.2907399157
 H        -6.8911520920        1.6171931856       -6.6822037678
 H        -8.1127045788        2.0613807388       -4.7157756069
 H        -8.8315227687        0.6526391406       -5.2908016842
 H        -8.5150450352        0.6781496349       -3.6295177209
 H        -3.5176013894        2.1069108929       -2.8538796259
 H        -3.1060570420        1.5741510060       -4.5244751258
 H         0.7408128879       -0.6541665722       -2.3531782943
 H         1.5785097324       -0.1559760846       -0.8824898030
 H         0.5026366179        0.6571652376       -4.2133037876
 H         1.1688292640        2.1348885416       -3.5309843453
 H        -0.2359295996        2.1718937946       -4.6117729826
 H        -1.7495544516        3.4321401284       -3.0384288279
 H        -1.9871699150        2.9898099230       -1.3691885529
 H        -0.4243645754        3.6984538724       -1.9177466403
 H        -0.1943920585       -1.1294784599        0.5414972943
 H        -1.3593277444       -1.3008896038       -0.6805583648
 H         2.2052015568       -4.8949743903        1.6313956273
 H         2.4447349771       -3.3556947077        0.7552908111
 H        -2.3551012603       -4.3554351495        1.3066918380
 H        -2.3297371283       -4.2582650991       -0.4947441695
 H        -2.2344727797       -2.8194349047        0.4481264181
 H        -0.2891079566       -5.1485939731       -1.5546058450
 H         0.9246426861       -5.5848979923       -0.3024043139
 H        -0.6969313958       -6.0879638453       -0.0711968666
 H         3.3053212234       -3.3142833182        3.4462817301
 H         1.6001751444       -3.5852782609        3.9503301334
 H         5.0789116583        1.6150216795        4.5446924023
 H         4.3520981537        0.9898476636        5.7816894783
 H         0.2527144251       -0.7512270573        4.7005721068
 H         0.5251016663        0.5681060265        3.5748202578
 H         0.8911776353        0.7657380742        5.3303895441
 H         2.2449175582       -0.7496400496        6.3919295542
 H         1.5893574768       -2.1874638183        5.6587371671
 H         3.3881209010       -1.8650469455        5.7369529571
 H         6.3658829642       -0.1602107062        5.5852769092
 H         5.0301341716       -1.2570982245        5.5473008673
 H         7.3903012013       -0.5133778087       -0.2859286073
 H         5.6698935809       -0.5459136030        0.3198775723
 H         7.8757031007        1.1202541709        3.6924138692
 H         9.2006103419        0.1729605618        3.3284694789
 H         8.3357264751       -0.2270705814        4.7802488340
 H         7.3054602718       -2.3137145327        1.4294101306
 H         8.9750419680       -1.4713346389        1.7772298399
 H         8.0763616975       -2.4325722269        3.0018609551
 H         5.8543973025        0.8404664157       -1.6941598882
 H         6.7235818936        1.9824260569       -0.4490423547
 H         2.7827623872        5.1747730698        1.3920312254
 H         2.6868528627        5.7682516230       -0.3329481746
 H         5.2213054230        3.8760318944        1.5778976639
 H         5.2567943001        5.1940032298        0.4016734514
 H         6.3418721766        3.9534989529        0.2862965067
 H         4.4459777450        2.7803096755       -2.4697856947
 H         4.2327556823        4.5986258636       -2.1011549207
 H         5.8156191616        3.8068862940       -1.9784187365
 H         0.5944375420        6.1402265047        0.3503843316
 H         0.3403096700        4.6031211200       -0.4352951902
 H        -3.5609378071        5.6609820676        0.3108240994
 H        -2.3766940971        4.3676083101        0.3420674432
 H        -3.3827664347        4.5330207584        1.6254307953
 H        -0.4055727822        4.2229351322        4.2657553118
 H        -1.8841153238        3.7591707677        3.3962224553
 H        -1.9921525067        5.2146347490        4.4464204888
 H         0.5520939914        7.0535363128        2.3640423750
 H        -0.3094628694        7.2912678057        3.8794524812
 H         1.0082614080        6.1584656470        3.7048913388
 Na        1.5764515326        1.2769701575        1.3690629097
