155

 C        -7.6840459816       -7.3968667309       -1.9129709700
 C        -7.8199708698       -5.8752546744       -2.1751083560
 C        -9.1315280779       -5.3300638860       -2.7019787290
 C        -8.8495835403       -3.7997518226       -2.8231634918
 C        -8.2140655421       -3.2537663188       -4.1300783698
 C        -9.2769625066       -6.0661182512       -4.0753092636
 C       -10.3562009667       -5.5208626317       -1.7670346472
 O        -6.8235475306       -5.2052544153       -2.0710548552
 O        -8.7912830993       -3.1873803928       -1.8015407511
 C        -8.1918529066       -1.7534181065       -4.3085025380
 C        -6.9140974792       -1.1430849879       -4.8541732984
 C        -6.7052683149        0.3881676931       -4.8079489239
 C        -5.8030339821        0.7749216777       -3.5351116550
 C        -4.3839949491        0.1353690879       -3.4668997860
 O        -5.9809727459       -1.7796016372       -5.2774854307
 O        -6.2086137112        1.6299120617       -2.8356828174
 C        -5.8522086698        0.8374228642       -6.0047703135
 C        -8.0151086907        1.1704678887       -4.7379369430
 C        -3.2578650037        1.2224283300       -3.3586223700
 C        -1.9401896671        0.4874756233       -3.0120242711
 C        -0.6839486370        1.4257170428       -2.6130013171
 C        -0.0148377610        0.8812960864       -1.3193109017
 C         0.6683370079       -0.4691764594       -1.3286832132
 C         0.4426838913        1.3431829205       -3.6961662700
 C        -1.0271934576        2.9413478511       -2.5261639938
 O        -1.7973808265       -0.7101689870       -2.9606012814
 O        -0.0614259813        1.5520082479       -0.2818229091
 C        -0.1920192166       -1.4333372443       -0.5182060104
 C         0.3797404682       -2.8584063587       -0.7007369573
 C        -0.2422109422       -3.9716313954        0.2871478093
 C         0.3081068582       -3.8586783379        1.6858879581
 C         1.8823761259       -3.6829326861        1.7717926563
 O         1.2630517118       -3.0255509093       -1.4977335871
 O        -0.3754377111       -3.9576550498        2.6262610696
 C        -1.7611134781       -3.6530306845        0.3997273178
 C        -0.0283633137       -5.3502478488       -0.3904550577
 C         2.3577300983       -2.9534645135        2.9259241223
 C         1.9748217277       -1.4464620496        2.9253575261
 C         2.0214210151       -0.6260499682        4.3133602477
 C         3.1288491496        0.4064632467        4.0350126724
 C         4.4165212404        0.5215627078        4.8600371550
 C         0.6722358218        0.1395996706        4.4115700396
 C         2.2665294489       -1.4892087549        5.5327545573
 O         1.8197275470       -0.7900682870        1.9159288204
 O         2.9850329387        1.2590221999        3.1652410371
 C         5.5030346857       -0.6210928933        4.7973478211
 C         5.9925259746       -1.0929998129        3.4705643908
 C         7.3120331251       -0.4711414424        2.9078890172
 C         6.8768833254        0.5716183935        1.7467886565
 C         6.3492282506       -0.1105425496        0.3976895348
 O         5.4615207966       -1.9294964901        2.7764551858
 O         6.8589000887        1.7517847896        1.9325881672
 C         8.1187608130        0.3033533370        3.9422317044
 C         8.1160113228       -1.6860794255        2.2285873862
 C         5.8780702311        1.0494432289       -0.5548403954
 C         4.6189515691        1.7320138215       -0.0216765923
 C         4.2996663530        3.3171227471       -0.3703549103
 C         2.8007337521        3.7657735128       -0.2427702731
 C         2.3080471365        5.0102765340        0.4215661976
 C         5.0762151156        4.1047571591        0.7541664521
 C         4.8684970949        3.6540816044       -1.7369985217
 O         3.8120338637        1.0985135227        0.6561212484
 O         2.0299979618        2.9999661879       -0.8384197860
 C         0.7817316888        5.0447689545        0.4869052208
 C         0.2451599026        4.3943150147        1.7936165446
 C        -0.7228529165        5.4773885276        2.5271925463
 C        -1.8007697278        6.1722747763        1.5758996507
 C        -3.0444599868        5.3815335403        1.2859186855
 O         0.5582249446        3.3160206118        2.3071050906
 O        -1.5380404617        7.3093564987        1.2720259391
 C        -1.5496852804        4.6783816750        3.6094365090
 C         0.2757489046        6.4824416077        3.2321886961
 H        -7.6024457951       -7.9411697927       -2.8400966414
 H        -6.8057597208       -7.6241280682       -1.3576253067
 H        -8.5634658175       -7.9231215782       -1.4688114126
 H        -7.2388743690       -3.5457751298       -4.0612654359
 H        -8.5811915579       -3.7043948648       -5.0134249785
 H       -10.1703598190       -5.8362455685       -4.6474156946
 H        -9.2971202612       -7.1285554733       -4.1558312821
 H        -8.5063117410       -5.7568699592       -4.7470853027
 H       -10.2727299582       -4.9524653638       -0.8431119578
 H       -11.2671420144       -5.1426223069       -2.1919241060
 H       -10.5216319244       -6.6395834669       -1.6564594411
 H        -8.9932916785       -1.4212447226       -4.9809011044
 H        -8.3347612432       -1.1281906962       -3.3272667063
 H        -4.3303882859       -0.3056418262       -2.4584537492
 H        -4.1877231149       -0.4978912245       -4.2651645035
 H        -4.7719768868        0.6546480793       -5.9206243382
 H        -5.9762621105        1.9288770227       -6.1301328572
 H        -6.1740547079        0.3062825866       -6.9332717545
 H        -7.7839843615        2.2303388352       -4.9830822241
 H        -8.8119195698        0.9984256814       -5.4522643545
 H        -8.4600415215        0.9246446429       -3.8068862794
 H        -3.4488310075        2.0630174433       -2.6431577568
 H        -3.1163259901        1.6310085173       -4.3477043674
 H         0.9284217668       -0.7747522019       -2.3548865575
 H         1.6223335354       -0.3350549965       -0.7549472951
 H         0.8298943151        0.2786163088       -3.7628675815
 H         1.2720428558        1.9223097112       -3.3288540020
 H         0.0630242063        1.6957674489       -4.7016895299
 H        -1.4521879772        3.4003192331       -3.3817847191
 H        -1.7234166629        3.0791048454       -1.7311838827
 H        -0.0945289282        3.4204756455       -2.2215154353
 H        -0.1871656198       -1.0107135862        0.4368687975
 H        -1.2749077479       -1.4663731618       -0.6957579347
 H         2.4234640967       -4.5985781805        1.7474622466
 H         2.1005560348       -3.1454162420        0.8599408843
 H        -2.2800161915       -4.4173788973        0.9593889112
 H        -2.1703504637       -3.6396363451       -0.5929370851
 H        -1.8570854261       -2.6644260487        0.9531594830
 H        -0.5875369922       -5.3200638686       -1.2602541365
 H         1.0224880832       -5.5054965522       -0.7038896326
 H        -0.2017557443       -6.2569816566        0.1430901354
 H         3.4814901401       -3.0218282554        2.9014740680
 H         1.9580123393       -3.3150630685        3.8335509760
 H         4.8640656880        1.5015582067        4.5884614928
 H         4.2773714657        0.8142166241        5.9486714567
 H        -0.2446778716       -0.5232248105        4.6537149706
 H         0.6302753116        0.6827200200        3.4296256759
 H         0.7986222362        0.9272551512        5.2137669907
 H         2.3417210944       -0.9076453254        6.4763742066
 H         1.4236861815       -2.1660276512        5.5343554569
 H         3.1542728500       -2.1071773586        5.5349924986
 H         6.2223230641       -0.1739346475        5.5040735464
 H         5.0218977101       -1.5484885005        5.2981484342
 H         7.0361266237       -0.7394440610       -0.1539683692
 H         5.4208091646       -0.6828501277        0.6213113700
 H         7.5784768362        0.9457099861        4.6758133712
 H         8.9392781173        0.8717294659        3.4801806523
 H         8.6195052933       -0.5032510511        4.4071810825
 H         7.4541351747       -2.3003247248        1.6871252357
 H         8.7576525100       -1.1213094010        1.6056146770
 H         8.6046268719       -2.2600517588        3.0014233885
 H         5.3631994747        0.5412484991       -1.3523672896
 H         6.7881140161        1.5600167431       -0.8218073375
 H         2.7242536737        5.0550058322        1.3801038755
 H         2.5448097390        5.9088356064       -0.2104287375
 H         4.7845722324        3.6554439283        1.7252469208
 H         4.8431305863        5.2066147375        0.7220780102
 H         6.2029158792        4.0622753615        0.6613363525
 H         4.4079841585        2.9341147678       -2.3951661928
 H         4.6783445571        4.6463153073       -1.9729855652
 H         5.8998251241        3.3982367557       -1.8109304391
 H         0.3250200000        6.0543174562        0.4309427468
 H         0.4422668386        4.5656757304       -0.4642905752
 H        -3.5143331601        5.7711471300        0.3528542760
 H        -2.9832372577        4.2543146202        1.2752599744
 H        -3.8123006060        5.5022495431        2.0733095659
 H        -0.9109852934        4.5492582562        4.4525516556
 H        -1.7776741776        3.6222619247        3.1830872383
 H        -2.4717696415        5.1958182322        3.8344823127
 H         1.2117894612        6.8225147536        2.7836323132
 H        -0.3151024582        7.3768803758        3.5674218437
 H         0.5748688696        6.0425040184        4.1645168080
 Na        1.5918910189        1.4439381984        1.1806470385
