155

 C        -6.5536677260       -7.5731673335       -3.0693329966
 C        -6.1011684133       -6.5049960681       -3.9750526982
 C        -7.1554621446       -5.8375954001       -5.1031856246
 C        -7.6267279567       -4.6116603147       -4.2748742074
 C        -6.7004417878       -3.4590155062       -4.3668780912
 C        -6.3719696492       -5.3666101677       -6.3684592628
 C        -8.3296021478       -6.8262961579       -5.4360082384
 O        -4.8872024627       -6.2980436563       -4.1533247017
 O        -8.6314407570       -4.5671098279       -3.5630770570
 C        -6.8954001495       -2.2649667246       -3.4229985292
 C        -6.1211766393       -1.0522146635       -3.9620039522
 C        -6.2937353042        0.4090574591       -3.2526806367
 C        -4.8476094203        0.7273976486       -2.6817732713
 C        -3.7553975775        0.6436809292       -3.7593935705
 O        -5.4819126996       -1.1273116862       -4.9806604004
 O        -4.6247244517        1.0133329874       -1.5175539987
 C        -6.7046434447        1.4370531912       -4.4278250844
 C        -7.2620014947        0.4911383224       -2.0406196570
 C        -2.5415688060        1.4514613214       -3.4595006361
 C        -1.2927688473        0.5496793460       -3.6005008751
 C         0.1482549512        1.2211428421       -3.2750493154
 C         0.5373244963        0.6666037379       -1.8877787454
 C         1.3776804963       -0.5396287301       -1.6144047953
 C         1.3038874477        0.9090428342       -4.3649077992
 C         0.1343295077        2.7485121586       -3.1360966546
 O        -1.2499282886       -0.5960590362       -3.8806180232
 O         0.0494650093        1.1941658100       -0.8531875754
 C         0.5674521578       -1.8705579138       -1.6858530523
 C         1.7404914950       -2.9299857507       -1.4043605879
 C         1.2639756163       -4.2196624140       -0.5487070204
 C         1.0080661946       -3.7382637706        0.9215735818
 C         2.1488512755       -3.2982408128        1.8053717158
 O         2.9003485828       -2.7882202855       -1.7339428076
 O        -0.1376710104       -3.5998052293        1.3455934641
 C        -0.0386960904       -4.7541210847       -1.1601064270
 C         2.4751326759       -5.2030706309       -0.5392293077
 C         1.7284311694       -2.6881708389        3.1479890731
 C         1.0123493677       -1.3405911291        3.0062336650
 C         0.5144743744       -0.6024490254        4.3096983386
 C         1.6714310079        0.4319412306        4.6060151009
 C         2.3732670288        0.6774860317        5.9102405501
 C        -0.7064026242        0.2388456477        3.9871296014
 C         0.2188183247       -1.5211299891        5.5541877100
 O         1.1990147119       -0.7389693385        1.9943245595
 O         2.0412750305        1.0804101276        3.6746481368
 C         3.5147924777       -0.3739680145        6.0933475581
 C         4.4103070512       -0.1897595637        4.9008220373
 C         5.5647985410        0.8499353642        4.7233925381
 C         5.3614850018        1.5520040454        3.3197887299
 C         5.9259567587        0.9173529335        2.0571237548
 O         4.5086653263       -1.1769282867        4.1088199277
 O         4.8353959602        2.6407118304        3.2501294999
 C         5.5875603037        1.8555482801        5.8216047463
 C         6.8267600261       -0.0695998010        4.7430491790
 C         5.6665397523        1.7646128742        0.7739555033
 C         4.1982895003        2.2202940199        0.6470342068
 C         4.0511171455        3.7151949585       -0.1639049546
 C         2.5644061272        4.0353379765       -0.4994559139
 C         1.6415979225        4.3003683670        0.6908177058
 C         4.6764830002        4.7891933844        0.6488368390
 C         4.7313312908        3.3533584503       -1.5202846112
 O         3.2829135886        1.5956542015        1.1980078659
 O         2.2911472646        4.3838705704       -1.6230436725
 C         0.0513986859        4.1981900124        0.4796498646
 C        -0.5055565668        4.1221860187        1.9340560666
 C        -1.6300084791        5.2228459135        2.3872566042
 C        -2.9983982175        4.7679829606        1.5497308784
 C        -3.5977192293        3.4853307559        2.0020527705
 O        -0.1132297941        3.1645105246        2.6636185863
 O        -3.3746367675        5.4929598371        0.6617932185
 C        -1.8421460422        5.0466515203        3.9545955852
 C        -1.2598315643        6.7151740052        2.0374150950
 H        -7.0900616201       -8.4170112958       -3.5286205605
 H        -5.6442136951       -7.9731188758       -2.7039764839
 H        -7.2119736483       -7.2993157127       -2.2464733618
 H        -5.7171745076       -3.8876588337       -4.3073729741
 H        -6.7656420650       -3.0230009857       -5.3824577889
 H        -6.9342931370       -4.6510786115       -6.8605761615
 H        -6.2101252848       -6.1873706590       -7.0431717070
 H        -5.4356589748       -5.1377766855       -5.9014342198
 H        -9.0593327226       -6.5720119535       -4.7274374881
 H        -8.8642507386       -6.6554719693       -6.3660729717
 H        -8.0583402886       -7.8854343407       -5.3692182445
 H        -8.0127233411       -1.9855779453       -3.3123462163
 H        -6.5949316127       -2.4300565524       -2.4478223662
 H        -3.4007012936       -0.4731270452       -3.7389076519
 H        -4.1319478865        0.8427493292       -4.7375040864
 H        -7.4774581071        0.9591487003       -5.0546941749
 H        -5.8998797168        1.7586021675       -5.1140023757
 H        -7.0550260075        2.3871338291       -4.0401934803
 H        -7.2650536480        1.5001190536       -1.6848773012
 H        -8.3122839603        0.4443216187       -2.3074763947
 H        -7.1256415732       -0.3066199893       -1.2799202446
 H        -2.5952542077        1.7406599768       -2.3542538127
 H        -2.6295456831        2.3296795353       -4.1693581162
 H         2.1164310790       -0.5478992460       -2.3341398076
 H         1.8229049639       -0.3997909114       -0.5890269875
 H         1.3352988540       -0.1797056700       -4.6440257862
 H         2.3116740233        1.1316967561       -4.0987133423
 H         1.1801520910        1.6223209620       -5.0778825372
 H         0.2803458299        3.2283024534       -4.0856130100
 H        -0.7189602428        3.1491713859       -2.5974167673
 H         0.9757622276        2.9453713167       -2.4928873641
 H        -0.1180283644       -1.8604390748       -0.8848900412
 H         0.1035741126       -2.1047716785       -2.6652176449
 H         2.8027784273       -4.1378291694        2.0225741570
 H         2.7622363540       -2.5997552730        1.2184542538
 H        -0.2742813546       -5.5576402627       -0.4094809058
 H        -0.0092897770       -5.0710479441       -2.2046993567
 H        -0.8009102777       -4.0252754446       -1.1195223458
 H         2.2993763485       -6.0712378163       -1.1299399557
 H         3.3605489887       -4.7485527228       -0.9334964332
 H         2.7447782888       -5.5121921931        0.4029721282
 H         2.5657448163       -2.5987418630        3.8493314546
 H         1.0388286816       -3.4184026864        3.6433704641
 H         2.9361850283        1.5415018285        5.6583018762
 H         1.6908478628        0.9308849225        6.7838791470
 H        -1.6396281343       -0.3532408777        4.1707502072
 H        -0.7377779948        0.8447605707        3.0502449737
 H        -0.8312022488        1.0584318337        4.7769055968
 H        -0.2521673755       -0.8866120326        6.2442531146
 H        -0.4496543626       -2.3771887961        5.3818145365
 H         1.2086138628       -1.9099583276        5.8535877376
 H         4.1494673268       -0.0815514507        6.9914639904
 H         3.1169802760       -1.4137035602        6.1822659423
 H         7.0422090565        0.9410565637        2.2295148395
 H         5.6493605273       -0.1362824084        1.8155726536
 H         4.6379604034        2.3966245499        5.6807772785
 H         6.4565203771        2.5002775383        5.7146106061
 H         5.7561545100        1.3771085967        6.7819764504
 H         7.0235112701       -0.6651960252        3.8947676871
 H         7.6721031405        0.6276364229        4.6460432256
 H         6.9930310183       -0.7101744361        5.5677831818
 H         5.6945657101        1.0851920073       -0.1132598761
 H         6.2449094013        2.5902642357        0.5168733971
 H         1.9352025489        3.7655284809        1.5758219757
 H         1.9366550650        5.2924039480        0.8538599737
 H         3.9738565497        4.8937106509        1.4608677081
 H         4.9225949928        5.6632730475       -0.0253943212
 H         5.6042571829        4.3788111517        1.0717367389
 H         4.3794080136        2.3464869876       -1.7550380245
 H         4.5257303412        4.0246608695       -2.3133773897
 H         5.8563978732        3.1935529874       -1.4538775666
 H        -0.2611885310        5.1155093109       -0.1204109383
 H        -0.1843441799        3.3070097721       -0.1251094219
 H        -2.8609849816        2.7348577297        2.2751982538
 H        -4.2058725669        3.5666947131        2.8525096662
 H        -4.2473078911        3.1626810838        1.1348076053
 H        -2.8713391282        5.1991809022        4.2684981444
 H        -1.1221519850        5.6343912195        4.5223001459
 H        -1.5842838183        3.9999223266        4.1451516395
 H        -0.7322049506        6.8077117961        1.0788257219
 H        -2.1535837225        7.2979989456        2.0877523442
 H        -0.5573634556        7.0007720985        2.8734995827
 Na        1.0053774173        1.4909586443        1.4042975677
