155

 C        -6.2628764809       -8.0857356588       -3.5549831406
 C        -5.9241029168       -6.7497265708       -4.1354497347
 C        -6.9903558219       -6.0363495880       -5.0460212491
 C        -7.4501619586       -4.5945236386       -4.5692336292
 C        -6.3351010879       -3.5726031497       -4.2422442224
 C        -6.2090637956       -5.7367715789       -6.4098213925
 C        -8.2255523470       -6.9224119510       -5.1695223117
 O        -4.8239793226       -6.1554871049       -3.9641647296
 O        -8.6209897966       -4.3559824919       -4.4220739342
 C        -6.8892219751       -2.4130471026       -3.4088871656
 C        -6.3956040286       -1.0423240297       -3.9909822341
 C        -6.4053188497        0.2981101677       -3.0729005392
 C        -4.9098373149        0.5854799876       -2.4843722561
 C        -3.6956053548        0.3449803996       -3.3821586848
 O        -6.0635781566       -0.9524325676       -5.1679668004
 O        -4.6952443182        0.6785802934       -1.2874914672
 C        -6.9135724463        1.5776410473       -3.9506834246
 C        -7.3298345498       -0.0175227684       -1.8405316637
 C        -2.4035273873        0.9990364919       -2.8090984177
 C        -1.0795219769        0.4692206663       -3.3923937031
 C         0.2452664213        1.1795054564       -3.1031411450
 C         0.8361493839        1.0425734388       -1.6512297828
 C         1.7154995803       -0.2589496907       -1.4429984181
 C         1.2769715320        0.7299780932       -4.1204140309
 C        -0.0445993775        2.7386524987       -3.3190993242
 O        -1.0984535432       -0.5484723634       -4.0172323953
 O         0.5392938838        1.8807552617       -0.8565842227
 C         0.9161403622       -1.5475114460       -1.3113487642
 C         1.9493665528       -2.7219784910       -1.2729440988
 C         1.3794763976       -4.0416329953       -0.6614887019
 C         0.9538273703       -3.6803665963        0.8673706913
 C         2.1344451645       -3.4716482075        1.7527976675
 O         3.0612576288       -2.5157745929       -1.8569603030
 O        -0.1859696150       -3.5272572780        1.1564084859
 C         0.1000770580       -4.4240969210       -1.5399621216
 C         2.3274860383       -5.2100892016       -0.8491205825
 C         1.7797062456       -2.7283716476        3.0836327830
 C         1.0172566239       -1.4423579750        2.8448261041
 C         0.3272740895       -0.7538599687        4.2014168531
 C         1.2708435158        0.4050268414        4.6113645832
 C         1.9009849377        0.3643886027        6.0456372552
 C        -1.0153749880       -0.1884552963        3.7792411205
 C         0.0045872815       -1.9140394275        5.2086897007
 O         1.1016314741       -0.8099834465        1.8280956943
 O         1.4691895906        1.3136942464        3.8082746963
 C         3.2822610156       -0.4301071949        5.8907482034
 C         4.2770350924       -0.1976471457        4.6819422393
 C         5.4024328335        0.8609063811        4.9435805748
 C         5.5439437993        1.7533616273        3.6437259907
 C         5.5530342011        1.0149070625        2.3472705106
 O         4.4784281820       -1.0680212983        3.9021339520
 O         5.6153167556        2.9290382673        3.7409262150
 C         5.1512537707        1.8244229666        6.0935647777
 C         6.7303881823        0.1118226217        5.1623366082
 C         5.7191568356        1.8950612436        1.1193729796
 C         4.3879443137        2.4720105617        0.6253890003
 C         4.2615623252        3.9390537063        0.0685430508
 C         2.7599793695        4.1261164629       -0.0445136485
 C         1.8012831882        4.6091698758        1.1515808262
 C         5.0740446857        4.9832908145        0.9356984756
 C         4.9429840783        3.8829195214       -1.2531590374
 O         3.3940254667        1.7455628491        0.7174098353
 O         2.2081298173        3.8757771318       -1.1154308174
 C         0.3965742491        4.8850524943        0.6544694609
 C        -0.6546961344        4.3064705703        1.5803215166
 C        -1.9013011918        5.0518362078        2.1517317652
 C        -2.9922508987        4.5836498130        1.0776896431
 C        -4.0166355565        3.5416661287        1.4465619606
 O        -0.6142958620        3.1456438686        1.8982567329
 O        -2.8008656419        5.0746484123       -0.0166695171
 C        -2.2904942978        4.6382215496        3.6106969244
 C        -1.7320463891        6.5926980249        2.0182256656
 H        -6.3189220354       -8.9008063434       -4.3264746373
 H        -5.4159699299       -8.4483804351       -3.0603984423
 H        -7.0480351088       -8.1601361276       -2.8836053486
 H        -5.5695174557       -4.1413135177       -3.7352439603
 H        -5.8505923606       -3.2794070147       -5.1401360247
 H        -6.6978519046       -4.9136989064       -6.9074341027
 H        -6.2390110555       -6.6471713733       -6.8797100152
 H        -5.2426354777       -5.4697559289       -6.0825571740
 H        -8.8012988639       -6.8827666165       -4.2406451947
 H        -8.7862934675       -6.6318340452       -6.0070086852
 H        -8.0561603314       -8.0098541740       -5.2679879234
 H        -8.0131273860       -2.4313156764       -3.3306206185
 H        -6.4770862240       -2.5092163605       -2.3780215686
 H        -3.6591970427       -0.7511675358       -3.6086539308
 H        -3.8293506828        0.7167977962       -4.4589118502
 H        -7.9781709063        1.5258564188       -4.1798500974
 H        -6.3129200660        1.6348183635       -4.8232251870
 H        -6.8477315667        2.5791729882       -3.3647291715
 H        -7.3757266714        0.8281592411       -1.0821151706
 H        -8.3754161291       -0.1639348085       -2.2365964777
 H        -6.9698997688       -0.8087254154       -1.1973576295
 H        -2.2325752311        0.8188473090       -1.7101291353
 H        -2.6271399217        2.0279321082       -2.9020159321
 H         2.5561234125       -0.3243646527       -2.2381678540
 H         2.1343947600       -0.1464253235       -0.4932482844
 H         1.1701644364       -0.3214589951       -4.3344741236
 H         2.2663128360        1.0704456291       -3.7595254780
 H         1.0457744198        1.0452071814       -5.1093438778
 H        -0.1767027204        2.8675835559       -4.3305981680
 H        -0.8946148945        2.9852629804       -2.7319178651
 H         0.8495075357        3.3266601862       -3.0388492558
 H         0.2000138077       -1.5476380691       -0.4543983266
 H         0.3470326446       -1.7511092416       -2.1822615458
 H         2.5283932114       -4.4856440201        2.0001614577
 H         2.9921024198       -2.9226223189        1.2416660519
 H        -0.3623495795       -5.3404689747       -1.1477360174
 H         0.4008742660       -4.5961885803       -2.5343629499
 H        -0.5735227689       -3.5606328166       -1.4689820550
 H         2.8109167309       -5.2077000539       -1.7867006665
 H         3.0479514923       -5.2483224231       -0.1049713087
 H         1.8038183440       -6.1299005314       -0.7193823254
 H         2.7308133429       -2.2440576773        3.4151483703
 H         1.4319873205       -3.4257375201        3.7834683787
 H         2.2719941025        1.4222213529        6.1804165544
 H         1.2485313770       -0.0973545809        6.7683222620
 H        -1.6817626840       -0.8284769894        3.2037734138
 H        -0.8905427248        0.5862160154        3.0431831076
 H        -1.6117388971        0.1692869526        4.6297936695
 H        -0.1270647606       -1.4493697349        6.2250872991
 H        -0.8533244764       -2.4678773961        4.9457428962
 H         0.8286326445       -2.5679198769        5.4339962400
 H         3.8389251032       -0.2467422775        6.8514944297
 H         3.0638974278       -1.4397203184        6.0027192947
 H         6.3413823352        0.2961078302        2.2619990463
 H         4.5943747246        0.4954443584        2.3168190290
 H         4.2934653238        2.3412734763        5.6943519085
 H         5.9676932039        2.5486161699        5.9507482569
 H         5.0423343862        1.4554494865        7.1831471698
 H         6.7782226332       -0.4905682500        4.2183600151
 H         7.6787099903        0.6482035217        5.2570602968
 H         6.7357431522       -0.6233861425        5.9480191623
 H         6.1422415337        1.3222537850        0.2675970384
 H         6.4026185764        2.7503989606        1.1751422501
 H         1.6680587332        3.8450476072        1.9032970597
 H         2.2153912621        5.5345141597        1.6034531334
 H         4.5473577918        5.2424723619        1.8731060460
 H         5.1039475355        5.8385255777        0.3127286897
 H         6.0032283003        4.4969668659        1.1910342351
 H         4.7581268287        2.9423487784       -1.8014823666
 H         4.5387828873        4.6467228998       -2.0151795611
 H         6.0494783251        4.0138040111       -1.1507291877
 H         0.3027792287        5.9268875509        0.6380083516
 H         0.3614617724        4.4901327980       -0.4072758605
 H        -3.7082974422        2.7547551684        2.1099886756
 H        -4.8549431134        4.1374809984        1.7847724323
 H        -4.2727530345        2.9670375335        0.5025470670
 H        -1.9150234037        3.5697924969        3.8150185971
 H        -3.3079484521        4.6793267649        3.8092968981
 H        -1.7968893822        5.2505730763        4.3832358015
 H        -1.2208992104        6.8243248382        1.0545756856
 H        -2.6512916354        7.2465461866        1.9370972400
 H        -1.0633512692        6.9048188912        2.7819603438
 Na        1.2263867561        1.5781297447        1.4268885802
