155

 C        -5.0740314344       -8.2613891017       -4.7246773978
 C        -5.2626650448       -6.7078369927       -4.5111652560
 C        -6.3882006657       -5.9264707809       -5.2439452951
 C        -7.0059811697       -4.7829971417       -4.3343614480
 C        -6.1303579836       -3.7995808990       -3.4424968818
 C        -5.6920057855       -5.2445267266       -6.4668912081
 C        -7.4681088370       -6.8918606570       -5.7996131582
 O        -4.5849040752       -6.1696243174       -3.6307069872
 O        -8.2176641743       -4.6329573573       -4.3834651719
 C        -6.9468740001       -2.5994744450       -3.0415504556
 C        -6.3609495442       -1.2840782098       -3.4628182847
 C        -6.1558496367       -0.2474687902       -2.3660261068
 C        -4.6213659722       -0.1217851927       -2.0329556474
 C        -3.5812851657        0.2888554120       -3.1647946264
 O        -5.9467375114       -1.1282566551       -4.6204821043
 O        -4.3202573094       -0.2133354370       -0.8667814574
 C        -6.6657144076        1.2077803434       -2.9592852499
 C        -6.9326771994       -0.3777888218       -0.9982432241
 C        -2.2269871871        0.8405629384       -2.5703949759
 C        -1.1259643017        0.4233757756       -3.4845928099
 C         0.1880165759        1.2941479091       -3.4139930231
 C         0.8274725292        0.9786249603       -1.9562348147
 C         1.8882322132       -0.1396292007       -1.9677583554
 C         1.1634041920        0.9907317035       -4.5022052412
 C        -0.1238719430        2.8063967742       -3.4334747201
 O        -1.1045356165       -0.6156419713       -4.1189197924
 O         0.3167954346        1.5834951614       -1.0231917242
 C         1.4498677578       -1.6117834756       -2.1178537580
 C         2.6093186499       -2.4655426036       -1.8247099556
 C         2.2676598306       -3.8862292694       -1.1481722705
 C         1.7651670353       -3.5637928205        0.2349787704
 C         2.6464350714       -3.4810467981        1.5184149975
 O         3.7286812175       -1.9721066038       -2.0645896180
 O         0.5587080330       -3.3450586382        0.3735446946
 C         1.1049931915       -4.5674959646       -1.9236329096
 C         3.5784015972       -4.8121407784       -1.2441967203
 C         1.8599745352       -2.9312191634        2.7294512614
 C         1.2382050685       -1.5859056996        2.5025361210
 C         0.1584334417       -1.1696383206        3.5900255446
 C         0.6657792707        0.2397923720        4.3045331692
 C         0.7818274747        0.3490467509        5.8292612182
 C        -1.0311765765       -0.7673452703        2.6727214061
 C        -0.3655362711       -2.2575870514        4.6043080781
 O         1.5289115499       -0.8225695314        1.5689531970
 O         0.9733592202        1.1845706404        3.5782925443
 C         2.1165520308        0.8881148068        6.2462867511
 C         3.2757655803        0.0429663791        5.6072195675
 C         4.8069261517        0.4942606808        5.5755211521
 C         4.9860842036        1.6866085476        4.5225710268
 C         5.6073959818        1.4902524997        3.1037550610
 O         3.0322829948       -1.1456762614        5.3688677484
 O         4.6133031339        2.7480929380        4.8348774941
 C         5.3406709008        1.1579672588        6.7817658759
 C         5.6391291385       -0.7870712938        5.1826813722
 C         5.5881223861        2.7087509299        2.2164109880
 C         4.1619437304        3.1987390302        1.8693518047
 C         3.8967402796        4.7781084604        1.5804542670
 C         2.6215365180        4.8535787536        0.6626157323
 C         1.2903905647        4.7414147053        1.2900127633
 C         3.7209032695        5.3700185442        2.9860513619
 C         5.0528959540        5.4317524716        0.8205684038
 O         3.3308734247        2.4083870864        1.6626710902
 O         2.6711515371        4.8715109428       -0.5913596577
 C         0.1220046117        4.6230218914        0.2935531546
 C        -1.0217011489        3.8121655479        0.9976086918
 C        -2.4154774201        4.4468308732        0.9015934659
 C        -2.7691322345        4.8343938975       -0.6057336379
 C        -4.1967335011        4.2259007411       -1.1191626840
 O        -0.9416968742        2.6574578458        1.4115029001
 O        -2.1313587842        5.5324437106       -1.3157407555
 C        -3.5119575566        3.5240864434        1.5713614045
 C        -2.4033623283        5.7914480068        1.7060136378
 H        -5.0076744476       -8.5473684214       -5.7561168626
 H        -4.1346925467       -8.6363025115       -4.3297354517
 H        -5.9296971564       -8.7311318104       -4.1927552422
 H        -5.7471426260       -4.2731170431       -2.5444418858
 H        -5.3126556765       -3.4570216986       -4.0441214916
 H        -6.4817902364       -4.8108334297       -7.0325133535
 H        -5.3281277926       -6.0853385486       -7.0390481385
 H        -5.0605626399       -4.4507550029       -6.1344432517
 H        -7.9280908651       -6.5605676128       -6.7214408567
 H        -7.0736525894       -7.9229268499       -5.9468260468
 H        -8.2213910802       -7.0074595750       -5.0608356511
 H        -7.9456742953       -2.6455494839       -3.4483655128
 H        -7.0960539382       -2.5079046148       -1.9129662927
 H        -3.3595396502       -0.5444779766       -3.8185857365
 H        -4.0290384285        1.0465752758       -3.8071430225
 H        -7.6029701991        1.0346163793       -3.4872239392
 H        -5.9476270055        1.6470359324       -3.6807789055
 H        -6.8744557251        1.7434769633       -2.1183722111
 H        -6.9758770508        0.5918966832       -0.5176785639
 H        -7.9375722750       -0.7549382524       -1.1342901344
 H        -6.4590206551       -1.1143672187       -0.3347270503
 H        -2.0464319677        0.2669412763       -1.6138481896
 H        -2.3402968996        1.8865271698       -2.3498022832
 H         2.6443645581        0.0963985430       -2.6961585445
 H         2.3627242241       -0.0417162420       -0.9410395651
 H         1.3569073825       -0.0230440546       -4.6282022278
 H         2.1249528437        1.4114196538       -4.1851168623
 H         0.7385738827        1.1546282568       -5.4964536699
 H        -0.9053704949        3.0571513095       -4.2189750789
 H        -0.6018599985        3.1898001258       -2.5299179680
 H         0.7479996386        3.4282605121       -3.5543758915
 H         0.6286103955       -1.8674090811       -1.4042697319
 H         1.1226831701       -1.7569850847       -3.1556496511
 H         3.1471341890       -4.4283634649        1.7463554765
 H         3.4951966165       -2.7411781363        1.3757796983
 H         0.8750814451       -5.5115764442       -1.5664786618
 H         1.4188092782       -4.6754500799       -2.9767027228
 H         0.1642009152       -3.9779695924       -1.7934805085
 H         3.6662225454       -5.1900396284       -2.2492970790
 H         4.4392127308       -4.1612844026       -1.0713121287
 H         3.6253456052       -5.7234787717       -0.6113463673
 H         2.4946339799       -2.9294330206        3.6276793315
 H         1.0893898733       -3.6191296984        3.0255654959
 H        -0.0355888473        0.9423608082        6.1080316514
 H         0.8072561769       -0.7131671974        6.2266749515
 H        -1.6248296990       -1.6447691760        2.2698741696
 H        -0.7315078374       -0.3335539062        1.6959122326
 H        -1.6934141460       -0.0888233323        3.2451638429
 H        -1.2168945103       -1.8010176865        5.0358499929
 H        -0.7518017968       -3.1725202441        4.0569316909
 H         0.3978714853       -2.5868316280        5.3340326718
 H         2.3288113406        1.9026735850        6.0931587444
 H         2.2645158208        0.7107941781        7.3482954641
 H         6.6710894696        1.2227012527        3.1744674229
 H         5.2078664867        0.7009105552        2.4991194811
 H         4.7893770322        2.0891014723        6.9309171512
 H         6.3341564427        1.5608955817        6.6218744329
 H         5.0701856965        0.6709765938        7.6510285780
 H         5.2911336625       -1.2433342488        4.2861371567
 H         6.6081359145       -0.3907257543        5.1954438078
 H         5.6822518196       -1.6003575993        5.9050174054
 H         6.1337139935        2.4523948406        1.2874335613
 H         6.1294899556        3.4849712886        2.7050841592
 H         1.3268248349        3.9415687513        1.9976607935
 H         1.1124823645        5.6614464549        1.9672107030
 H         4.4852571859        6.0196296453        3.3962188967
 H         3.6469818578        4.6239954175        3.8068999587
 H         2.8805180437        6.0671188849        3.0518492001
 H         5.1245203532        5.3005851341       -0.2940223952
 H         4.9661099867        6.5724944337        0.9392933331
 H         6.0029167526        5.3805570212        1.3261230191
 H        -0.2557332079        5.5962911087        0.0445770476
 H         0.4289263232        4.1111915973       -0.5993781485
 H        -4.2646095446        3.2021375697       -0.7603200013
 H        -4.9879287354        4.8026910758       -0.6158889176
 H        -4.2078973127        4.4535078029       -2.1529332360
 H        -3.3915407583        2.4812367801        1.3121892778
 H        -4.4848922621        3.9028681742        1.2847463312
 H        -3.3836289120        3.6034398145        2.6703432420
 H        -1.7317099316        6.5206125815        1.3005255716
 H        -3.3213872066        6.3000975339        1.8553147022
 H        -2.0502335859        5.7511811645        2.7653251228
 Na        1.1964937055        1.5641442893        1.1856051164
