155

 C        -5.0622520822       -8.2492765683       -4.8706286546
 C        -5.1429379187       -6.7944357094       -4.5126352004
 C        -6.3957827335       -5.9259753115       -5.1523065273
 C        -7.0074446180       -4.8129276947       -4.2738263778
 C        -6.0367918178       -3.9491841271       -3.5158857683
 C        -5.5687620259       -5.1812712225       -6.3030107988
 C        -7.5540091952       -6.7813076757       -5.6857204054
 O        -4.3525652316       -6.2636110567       -3.8136021164
 O        -8.2218366470       -4.6701736084       -4.3467234141
 C        -6.8122783071       -2.7114435215       -2.9934953005
 C        -6.2562691504       -1.2854241130       -3.3540657979
 C        -6.1229918946       -0.0940923715       -2.3190854782
 C        -4.4839941242        0.0667406046       -2.0710674004
 C        -3.5670771661        0.4743930054       -3.1998223993
 O        -5.9655628540       -1.0934557063       -4.4964346415
 O        -4.0420174715       -0.1411319381       -0.9536306746
 C        -6.7688139073        1.1564109386       -3.0769145302
 C        -6.8028615129       -0.5076633139       -1.0108345682
 C        -2.2247686577        0.8860183970       -2.6731058398
 C        -1.1537216295        0.4431178013       -3.5938881544
 C         0.1945097356        1.2936485018       -3.5138682134
 C         0.9062450873        1.0121548049       -2.0449567189
 C         1.9537881581       -0.0837819901       -1.7673874848
 C         1.1049891625        0.7896591202       -4.6449659051
 C        -0.1659725301        2.7723690452       -3.6250446348
 O        -1.2145274289       -0.6075046075       -4.1735052174
 O         0.4939082169        1.6594081149       -1.0674016331
 C         1.5277756795       -1.5899968865       -2.1682473986
 C         2.7563313415       -2.5753189182       -1.8425287607
 C         2.3697492194       -3.8969629538       -1.1432299228
 C         1.7484433600       -3.5589084353        0.3059390484
 C         2.7213377500       -3.2698889167        1.3999823166
 O         3.8410815862       -2.2699993121       -2.1760241907
 O         0.5537539886       -3.4852800785        0.4001017048
 C         1.4155276117       -4.6877152374       -2.1453075376
 C         3.6578117724       -4.6531734285       -0.8695527731
 C         1.9516942923       -2.9700613802        2.6594406879
 C         1.3510849956       -1.5547511269        2.5279240186
 C         0.1223127004       -1.0594294874        3.4358653458
 C         0.5636928886        0.3723704780        4.0231499830
 C         0.6883239280        0.4959574800        5.6126128496
 C        -1.1046068257       -0.7682551154        2.5424973171
 C        -0.1931744056       -2.1112850320        4.5446884562
 O         1.8277108258       -0.8370796749        1.6780310895
 O         0.9162025571        1.3097626095        3.3599015029
 C         2.1291743875        0.9538089067        5.9420509229
 C         3.2513390540       -0.1503617387        5.5176527954
 C         4.6900962454        0.4342539567        5.5761210087
 C         4.9788303608        1.7448274285        4.5480404837
 C         5.3109455548        1.3883364448        3.1064327843
 O         3.0409068320       -1.3258990584        5.3834910620
 O         4.6760613194        2.9145405977        4.9079553320
 C         4.8939921912        0.7767901023        7.1283299024
 C         5.7293094261       -0.6343320144        5.0664967112
 C         5.4549911672        2.6327074115        2.1383210963
 C         4.1169568157        3.2699023256        1.9257777717
 C         3.8588403822        4.7818774095        1.7750724348
 C         2.5672372778        4.9149582828        0.8768697869
 C         1.1388561931        5.1001046595        1.3775108623
 C         3.6864731458        5.4390963943        3.0980741447
 C         4.9237499364        5.5607999263        0.9564316623
 O         3.0903739423        2.4905732242        1.9514683962
 O         2.6058134357        4.7600232221       -0.3196729389
 C         0.1706778665        4.3002941066        0.4334382560
 C        -1.1431217233        3.7782702237        1.0579863589
 C        -2.5849323299        4.4714298734        0.9392622507
 C        -2.9199643086        4.8353453758       -0.6242093728
 C        -4.1779954712        4.2639491832       -1.4085820008
 O        -1.1311179669        2.7714293186        1.7466732715
 O        -2.0375744790        5.5500490248       -1.1381710090
 C        -3.7286819382        3.5931509495        1.6070153149
 C        -2.4854797806        5.7413639529        1.6704664592
 H        -4.8217292246       -8.4157914851       -5.8996417683
 H        -4.1977588227       -8.6464784770       -4.3578099891
 H        -5.9389350833       -8.7699037439       -4.5367237919
 H        -5.7076907094       -4.5445276068       -2.6427583217
 H        -5.0895439136       -3.7505443410       -4.0882393050
 H        -6.1733994175       -4.4563595616       -6.8274831363
 H        -5.1610474650       -5.9332665968       -6.9694241716
 H        -4.7529051765       -4.6371761635       -5.7682153288
 H        -7.9552935881       -6.3058348625       -6.5826636605
 H        -7.2918376764       -7.7558760341       -6.0043333731
 H        -8.3252102033       -6.9077346669       -4.8718074183
 H        -7.7955837443       -2.6387941020       -3.5864744987
 H        -7.1189538379       -2.8021420804       -2.0309593750
 H        -3.5087547057       -0.3359420738       -3.9420220092
 H        -4.0575327980        1.2466526203       -3.7589789945
 H        -7.8473819089        1.1315639878       -3.0435514329
 H        -6.4704027928        1.0473451399       -4.0817831676
 H        -6.3360880273        2.0447845970       -2.5149809487
 H        -6.5347752241        0.2892185736       -0.2658543006
 H        -7.9035764677       -0.5722722685       -0.9468903173
 H        -6.4084537444       -1.4951439028       -0.7153316227
 H        -2.1547767696        0.4196622205       -1.7057949783
 H        -2.3227293062        1.9667176427       -2.4504285417
 H         2.9648566150        0.1584832489       -2.1693674780
 H         1.9912275140       -0.0290657191       -0.7037485752
 H         1.0258663630       -0.3119021404       -4.8822684659
 H         2.1311277525        0.9281019174       -4.4854443958
 H         0.7109117262        1.2230526970       -5.5931436045
 H        -1.1523982803        2.9700096117       -3.8790990126
 H         0.0573980279        3.3643968902       -2.7610381798
 H         0.5171649175        3.2229552364       -4.3112046124
 H         0.6418787249       -1.8945537208       -1.5937304275
 H         1.2439207612       -1.5800411679       -3.2175134831
 H         3.4349997767       -4.0638446787        1.5690011202
 H         3.2868660736       -2.4201439027        1.1145256169
 H         1.0704256392       -5.7288619601       -1.8332242799
 H         1.9580937365       -4.7924704735       -3.0842996004
 H         0.5320298197       -4.1578107705       -2.3157625613
 H         4.1066161766       -4.8817323203       -1.8163528076
 H         4.3955423241       -4.0765764227       -0.3786937415
 H         3.4227922147       -5.5517267504       -0.4308670743
 H         2.6925005371       -2.9522964666        3.4801461356
 H         1.3430182409       -3.8482497935        2.9566681416
 H        -0.0889763470        1.2470196147        5.9486777754
 H         0.5924871454       -0.4774173182        6.0324383445
 H        -1.3701466755       -1.5991855437        1.9449111247
 H        -0.9581048530       -0.0212653490        1.7592826245
 H        -1.9205995001       -0.5227831915        3.2166788420
 H        -0.9672334689       -1.7050701459        5.2311896009
 H        -0.6229490375       -2.9488902436        4.0926504761
 H         0.7474742180       -2.3861963501        4.9869016122
 H         2.4373057386        1.9765816309        5.5407335548
 H         2.3141293746        1.0540817555        6.9893221306
 H         6.1637265644        0.7235821839        3.0530963621
 H         4.4252821113        0.8543465023        2.6704405603
 H         4.4508764619        1.6927972050        7.5094619767
 H         5.9099128137        1.1048913812        7.1447706091
 H         4.4945105774        0.0336327389        7.8471516600
 H         5.2568593936       -1.1782603521        4.2368279696
 H         6.7427246391       -0.1367158020        5.0595445600
 H         5.8751675035       -1.3950786320        5.8327046903
 H         5.7078415795        2.3802861893        1.0961366120
 H         6.2693249113        3.2910104938        2.5161929280
 H         0.9641689417        4.8893091734        2.4788957640
 H         0.9666538574        6.1369489683        1.2348676489
 H         4.4997747056        5.3755871893        3.8042186221
 H         2.9236397114        5.0146590752        3.7442135305
 H         3.4116042240        6.4848724402        3.0076854649
 H         5.0503619535        5.0386003432        0.0256478730
 H         4.6093712744        6.5433922639        0.7221113814
 H         5.8701002706        5.8163193672        1.4183379382
 H        -0.1620368167        4.9687794540       -0.3768355321
 H         0.6793364457        3.3790900038        0.0361916293
 H        -4.1637706774        3.1568183039       -1.2131615746
 H        -5.0333471979        4.8287585859       -1.0454002280
 H        -3.9740123052        4.5219670402       -2.4772571937
 H        -3.7557133262        2.6829259025        0.9943109398
 H        -4.7159272771        4.1356777861        1.4886707829
 H        -3.5045323461        3.3210200225        2.6078087123
 H        -1.6556083184        6.3594684292        1.3113625196
 H        -3.3628288864        6.3871696132        1.6025273984
 H        -2.3102828821        5.7910367251        2.7044439344
 Na        1.0897230186        1.3435878245        1.1633749727
