155

 C        -5.0899666235       -8.2836246398       -4.8993844509
 C        -5.1866891668       -6.8004744208       -4.5730124470
 C        -6.2748081734       -5.9086740296       -5.2481249198
 C        -6.9148402577       -4.8431051835       -4.2973987026
 C        -5.9237223560       -3.8385666963       -3.5972606111
 C        -5.5846551348       -5.2247193750       -6.4527930071
 C        -7.3949099247       -6.8515898937       -5.8324633338
 O        -4.3299065196       -6.2927321408       -3.8112000466
 O        -8.0939345165       -4.7748302102       -4.0996039205
 C        -6.6561256684       -2.7442361073       -2.8427411448
 C        -6.2350998043       -1.3759052905       -3.2815059616
 C        -6.1203505377       -0.0803768746       -2.2916837666
 C        -4.6300766309        0.0737554056       -2.0040882890
 C        -3.7347435129        0.5937654435       -3.2087551701
 O        -5.7268684505       -1.2920116673       -4.3772924141
 O        -4.0494553690       -0.0296600396       -0.9366443649
 C        -6.7543503094        1.1655774696       -2.8999806235
 C        -6.7071033877       -0.3444422904       -0.8965141048
 C        -2.2507942054        0.9684257004       -2.7531293023
 C        -1.0914527902        0.4463980156       -3.5888483662
 C         0.3477428154        1.1708990165       -3.6061531675
 C         0.9855907041        1.0716682911       -2.2147850419
 C         2.0879504492       -0.0419946989       -1.9397451291
 C         1.2098704926        0.6111703839       -4.7666981079
 C         0.2165939203        2.6448145743       -3.8294304879
 O        -1.1652050420       -0.5638867464       -4.2762877933
 O         0.4683920091        1.5810556477       -1.2353311812
 C         1.6462801527       -1.5021264484       -2.1506863213
 C         2.8160815409       -2.5869534731       -1.9095560640
 C         2.5429162091       -3.9696255400       -1.1262758188
 C         1.7890813561       -3.6431195391        0.2041890755
 C         2.6846195517       -3.4363995892        1.4342688040
 O         3.9961284743       -2.3916683161       -2.2470232191
 O         0.5644272028       -3.6078802225        0.2627334006
 C         1.6804028908       -4.8725918563       -1.9395505853
 C         3.8455599683       -4.6693973733       -0.9468767956
 C         2.0246891683       -2.7529420666        2.6840396437
 C         1.4349017925       -1.3930692105        2.4028963988
 C         0.1424151991       -1.0037246262        3.2957767111
 C         0.4616100085        0.3643938001        4.0790604474
 C         0.8123566405        0.5891370516        5.5753666290
 C        -1.1300079503       -0.8301090956        2.3647383447
 C        -0.0935487640       -2.0755886953        4.3752728623
 O         1.9673973722       -0.5373500776        1.6763003850
 O         0.6194623195        1.3049416460        3.3282104858
 C         2.2153175190        1.1268087242        5.7533208832
 C         3.1740356884       -0.0749980635        5.4419032427
 C         4.6939362369        0.3082271573        5.5315496996
 C         4.7827735295        1.6064604586        4.6948869314
 C         5.0950246190        1.4386896991        3.1399269452
 O         2.8754812196       -1.2201167507        5.0414005084
 O         4.6617488121        2.7141394416        5.1365781093
 C         4.9784132888        0.8272644543        7.0614215199
 C         5.7728726476       -0.7463226921        5.2208409830
 C         5.0360462114        2.7957625964        2.4511957535
 C         3.6503129783        3.3133043009        2.0522959759
 C         3.6406056800        4.8054732147        1.9033380202
 C         2.4289643087        5.0090935820        0.9252254303
 C         1.0105207239        5.0340143499        1.4659243499
 C         3.4785087845        5.5123326144        3.3162086376
 C         4.9402698048        5.2949168088        1.2543493433
 O         2.7272531749        2.6193638645        1.9474998284
 O         2.6027995008        4.6922218505       -0.2162883030
 C        -0.0459275448        4.4421164186        0.4981520673
 C        -1.2787983593        3.7520613676        1.2795472104
 C        -2.5805346373        4.4425789683        1.1109230817
 C        -2.7412924292        4.8798714360       -0.6179821538
 C        -3.9724447013        4.2420027187       -1.3985799638
 O        -1.1639023286        2.6357401297        1.7865352639
 O        -1.9719065744        5.5651186742       -1.1537724088
 C        -3.8111781023        3.5860597797        1.5553296468
 C        -2.6215123886        5.9303421817        1.6344404558
 H        -4.9687507802       -8.5105317370       -6.0150980222
 H        -4.1768303949       -8.6748869548       -4.3999815269
 H        -5.9468237783       -8.7954984344       -4.4268744084
 H        -5.2377362970       -4.3974409858       -2.9293592253
 H        -5.2532543603       -3.4335997646       -4.3427648392
 H        -6.2644584986       -4.3222273439       -6.6647892838
 H        -5.6265557925       -5.9851337838       -7.3003066741
 H        -4.5303871375       -4.9497756215       -6.2187607829
 H        -8.3259695484       -6.2779783674       -5.8910671104
 H        -7.2279587734       -6.9880121602       -6.9316277077
 H        -7.4825565867       -7.7993405854       -5.3854247276
 H        -7.6679310597       -2.8809051932       -3.0411181976
 H        -6.5580022248       -2.7515375760       -1.6575505160
 H        -3.7007430456       -0.0849162822       -4.0980479915
 H        -4.2894948502        1.4968755435       -3.6567907589
 H        -7.7667496066        1.2687845572       -2.4896193199
 H        -6.8367198267        0.9913497222       -4.0165779073
 H        -6.1178072877        1.9492725278       -2.6453900269
 H        -6.7743851235        0.5555058742       -0.3358868483
 H        -7.7240204469       -0.7033458357       -0.8605075647
 H        -6.1466448044       -1.0961555216       -0.3966388372
 H        -2.1472234576        0.6486730073       -1.6692262164
 H        -2.2830948200        2.0487200645       -2.6033867560
 H         2.9774013132        0.2051529892       -2.5039566974
 H         2.3779463573        0.0068088278       -0.8543434550
 H         1.5344810537       -0.4250498772       -4.8037606120
 H         2.2485442789        1.1532339827       -4.6331041598
 H         0.8062143446        0.9492251615       -5.6955246774
 H        -0.4711042129        2.8631522629       -4.6931354086
 H        -0.1805414781        3.1666573699       -2.9493362885
 H         1.2079294233        3.1310211072       -3.9412993355
 H         0.8523991528       -1.7294858197       -1.4716852496
 H         1.2245973459       -1.7079153826       -3.1911882438
 H         3.0025280383       -4.4722735551        1.7176063622
 H         3.6039858402       -2.8707426332        1.0936712049
 H         1.6940199478       -5.8022941908       -1.4247824072
 H         2.1603893849       -5.0741401620       -2.9195802185
 H         0.5701651858       -4.6308833786       -2.1213474558
 H         4.2572346502       -4.8977148720       -1.9546013947
 H         4.6303962951       -4.0116699480       -0.5120068578
 H         3.6831691095       -5.6704995888       -0.3959235182
 H         2.6614383683       -2.7808841727        3.5642330962
 H         1.2082397103       -3.4196766911        2.9519096983
 H         0.1757411263        1.3624900127        6.0177038670
 H         0.6464653045       -0.3943148039        6.0306666226
 H        -1.1600853972       -1.6467744632        1.5904801095
 H        -1.0092112539        0.0486272986        1.7669449846
 H        -2.0435555934       -0.8705052719        2.9389672474
 H        -0.9069369975       -1.7042284549        4.9574999443
 H        -0.4448263670       -3.0545387169        3.9093494661
 H         0.8277882832       -2.1671904129        4.9470569518
 H         2.4359570762        1.9243316762        5.1090911568
 H         2.4274351232        1.5956018533        6.7572197262
 H         6.0378129172        0.9236093422        2.8110070308
 H         4.2566167801        0.9007427871        2.6998530698
 H         4.4615585022        1.6510980267        7.5182609433
 H         6.0335022986        0.9930205827        7.3238439583
 H         4.5615997587       -0.0389943243        7.6374138383
 H         5.7460737379       -0.9962301137        4.1573122085
 H         6.6507703325       -0.3806397578        5.6487748854
 H         5.5438195951       -1.6619790122        5.7963095668
 H         5.7341560972        2.8959171157        1.6059224315
 H         5.5076806316        3.4221917973        3.2269265940
 H         1.0057115667        4.5241544946        2.3865702735
 H         0.6930028285        6.1099535153        1.6258783245
 H         3.6927821356        4.8047002211        4.1091467871
 H         2.4712602592        5.7915016038        3.6185829140
 H         3.9449017291        6.4653994472        3.5079615018
 H         5.1134864077        4.6992228309        0.3586516070
 H         4.9767683011        6.4061350049        1.0535895861
 H         5.8503443297        5.1083252239        1.9425122922
 H        -0.4147752265        5.3471262832        0.0204869813
 H         0.2239735398        3.6933538439       -0.2106960812
 H        -3.6598843351        3.2143306366       -1.4458894026
 H        -4.8569758273        4.4957601669       -0.8189399166
 H        -3.9867215021        4.6451488493       -2.4011241740
 H        -4.3596895981        3.1481917521        0.7193265801
 H        -4.4353980327        4.2505646279        2.0161712784
 H        -3.4383946182        2.8229640859        2.2895729888
 H        -1.9415178915        6.6404513049        1.2052687538
 H        -3.5984933036        6.3894976529        1.4831963450
 H        -2.4115561630        6.1723012451        2.6914050982
 Na        0.8518732167        1.4440999169        1.0930259478
