155

 C        -5.1691404799       -8.5864880921       -5.2701280152
 C        -5.1039498284       -7.1246832416       -4.7183468122
 C        -6.1752108926       -6.0651909258       -5.3204931884
 C        -6.2121001221       -4.9697180369       -4.0727990061
 C        -5.2002268136       -3.7161319704       -3.9381135056
 C        -5.7664505958       -5.4660522156       -6.6817077145
 C        -7.5497696384       -6.7098035990       -5.5804198631
 O        -4.1791299631       -6.7517613863       -4.0736557512
 O        -7.1801068817       -4.9888475087       -3.3274595249
 C        -5.6654148687       -2.7252171013       -2.7815431082
 C        -5.6968392090       -1.2385871599       -3.2468212941
 C        -5.7663490006       -0.1131973256       -2.1299246284
 C        -4.3155996602        0.4117911059       -1.9007307770
 C        -3.4324958545        0.7769364281       -3.0756566026
 O        -5.5769625392       -0.9616979364       -4.3959560332
 O        -3.9854279121        0.8259430875       -0.7896165750
 C        -6.7732108682        0.9474342112       -2.6727743387
 C        -6.2747191683       -0.7013879005       -0.8258292963
 C        -1.8732570476        0.9977663200       -2.7798026829
 C        -0.8916137986        0.4286401097       -3.8686540341
 C         0.6311630178        1.0283690885       -3.8549480973
 C         1.1699640735        0.8562255592       -2.3615217046
 C         2.2585243832       -0.2236144753       -2.0070291119
 C         1.4743731645        0.3396066285       -4.9578497855
 C         0.5864695358        2.5817432570       -4.0488328485
 O        -1.1914303664       -0.4079719999       -4.6825985612
 O         0.6707927128        1.5676166307       -1.4800722974
 C         1.8951219446       -1.6656766335       -2.0376834587
 C         3.2419398437       -2.5284640403       -1.7513936895
 C         2.9590051336       -4.0967475904       -1.1963586070
 C         2.1510068085       -3.7433703952        0.1052912605
 C         2.9614903368       -3.0577072199        1.3007225108
 O         4.2871163832       -2.1933085289       -2.1476207069
 O         0.9813675404       -3.9632244787        0.2058822682
 C         2.1429541993       -4.8364188219       -2.2682150704
 C         4.3035952961       -4.7173644682       -0.8962171079
 C         1.9348384505       -2.8198030219        2.3981458662
 C         1.1072976215       -1.5666732678        2.2503976791
 C        -0.1030602575       -1.2900471033        3.2739728401
 C         0.3629680313        0.1094232569        4.0380809400
 C         0.3892862518        0.0214657145        5.6122845368
 C        -1.3267422495       -0.9740605561        2.3690747804
 C        -0.3188496193       -2.6145537793        4.1678078174
 O         1.3715548092       -0.7781523988        1.3309607046
 O         0.6526210006        1.0987136334        3.3994214528
 C         1.5986320346        0.7575672492        6.1540613976
 C         2.8412376238        0.1871505601        5.4030143720
 C         4.2495733973        0.3364720334        5.8443065032
 C         4.9222347522        1.5555401596        5.1083867214
 C         5.0897298225        1.4645962734        3.5651812386
 O         2.5832091049       -0.6437677073        4.5508667793
 O         5.0396394021        2.6252500788        5.6987692219
 C         4.3747849018        0.6407193907        7.4753984516
 C         5.1456339466       -0.8565548347        5.5259449459
 C         5.0827134390        2.8929422386        2.9128777719
 C         3.7142746304        3.2704388047        2.3817174636
 C         3.2516235769        4.8483165385        2.4425601109
 C         2.0777043715        5.2778498949        1.4854556077
 C         0.6913811164        4.6701797271        1.5223596756
 C         2.9665143538        5.3513458491        3.8598362401
 C         4.5631543609        5.6275320726        1.7489272626
 O         3.0693654503        2.4639883501        1.7037037218
 O         2.2912090716        6.0166284900        0.5242321054
 C        -0.1307440431        4.8884652207        0.2176504073
 C        -1.4335250634        4.0799384067        0.4520722096
 C        -2.7898940058        4.7063616644        0.6643655937
 C        -3.7142604707        5.0210539365       -0.6967265965
 C        -4.4385826389        3.7906632453       -1.3097909672
 O        -1.2843838722        2.8791291029        0.7005031840
 O        -3.7070589441        6.1284459070       -1.2151556903
 C        -3.6883664492        3.7472968598        1.4892622867
 C        -2.6457227958        6.0574307944        1.3185073199
 H        -4.9722941798       -8.4610317281       -6.3464159948
 H        -4.5872710260       -9.2462812895       -4.6781344226
 H        -6.1513318354       -8.9008234464       -5.2781368030
 H        -4.1646933492       -4.1407724121       -3.8666025612
 H        -5.1922021776       -3.1777626120       -4.9063400007
 H        -6.5764817609       -4.8263106121       -7.1023347347
 H        -5.6648364932       -6.2369679745       -7.4211832618
 H        -4.8999868895       -4.8117583727       -6.5615908531
 H        -8.1546652186       -6.0608777702       -6.2397531146
 H        -7.4239369198       -7.6608893928       -6.0070020886
 H        -8.1946744033       -6.6933214955       -4.7434652843
 H        -6.6150640992       -3.0577225504       -2.4421761430
 H        -4.9381848680       -2.7975543815       -1.8761984894
 H        -3.5079405571       -0.0230177038       -3.8044343280
 H        -3.8183581550        1.6603705732       -3.6774680255
 H        -7.7430945338        0.5997342790       -2.3098452750
 H        -6.7030874802        1.0222716445       -3.7609679870
 H        -6.6350303744        1.9326796647       -2.1727741452
 H        -6.5409412295        0.0910610767       -0.0912012781
 H        -7.1744878307       -1.3469972067       -0.9624655423
 H        -5.6074961750       -1.2906225409       -0.2385906234
 H        -1.6789703712        0.4784229008       -1.8897004197
 H        -1.8192912724        2.0343825737       -2.4439964515
 H         3.0080092102       -0.0184526341       -2.7629585042
 H         2.7034066382       -0.0386854747       -1.0207645532
 H         1.3731720627       -0.7590644552       -4.9017244436
 H         2.4605246691        0.7689070588       -5.1214806657
 H         0.9276301441        0.4344997342       -5.8828335821
 H         0.9555937940        3.1381862011       -3.2514862624
 H         1.1138852903        2.6730908320       -4.9598020395
 H        -0.4395793221        2.9648598639       -4.2404536687
 H         1.1075255988       -1.8917892354       -1.4641404266
 H         1.5961189359       -1.9187674899       -3.0877237353
 H         3.7264439515       -3.7674936285        1.5863507035
 H         3.4140578593       -2.1364349323        1.0200234985
 H         1.6376810304       -5.6762076122       -1.6658079300
 H         2.6571999559       -5.3418183565       -3.0427883244
 H         1.3274415795       -4.3458543818       -2.7266450117
 H         4.5751406330       -5.2946554997       -1.7505386585
 H         5.0088827004       -3.9675997264       -0.6690560235
 H         4.2553593486       -5.3556287904       -0.0689640552
 H         2.3845028863       -2.8970381821        3.3470054311
 H         1.2207078261       -3.6955447711        2.2804470469
 H        -0.6068254766        0.3482179684        6.0754798911
 H         0.2437599882       -0.9456395436        5.9290030124
 H        -1.3754731932       -1.8430364474        1.7184660712
 H        -1.1976841374        0.0145354089        1.9206392842
 H        -2.2935458418       -0.8254372392        2.8665115289
 H        -1.1829278074       -2.3680951342        4.8120852910
 H        -0.5552918373       -3.4474393542        3.5212420166
 H         0.5944326639       -2.7567656096        4.7225363881
 H         1.4891738868        1.7939791434        5.8892133917
 H         1.7879038543        0.7049998020        7.2874813976
 H         6.0502812955        0.8705869087        3.4211422331
 H         4.2749037960        0.8934950984        3.1603727532
 H         3.9029989545        1.5300912696        7.8211265489
 H         5.3690966570        0.6720354166        7.9241264937
 H         4.0374054912       -0.2962740901        8.0422989804
 H         5.3605912982       -0.8982737684        4.4299265422
 H         6.1538635946       -0.5949757237        5.9263201530
 H         4.6197873026       -1.7246712035        5.9137879200
 H         5.6802464252        2.9231494224        1.9935542139
 H         5.6708806685        3.5813996759        3.6136793290
 H         0.8623686498        3.6458627331        1.7456746843
 H         0.0690396073        5.1029314562        2.3539063547
 H         1.9680109556        5.8614076637        3.9832731743
 H         3.6813451915        6.0310719908        4.2454912603
 H         2.7877679468        4.4527855080        4.4657742874
 H         4.7774550458        4.8981328799        0.9713717633
 H         4.2638136926        6.5036608262        1.2840705538
 H         5.4373217275        5.6992278764        2.4269482059
 H        -0.3267285991        5.9976949221        0.0890426476
 H         0.4858685518        4.5546502530       -0.6433827982
 H        -3.7109793794        2.9372032813       -1.2985551710
 H        -5.4821253970        3.6090407116       -0.9281980679
 H        -4.4301981042        4.0000831842       -2.4086244003
 H        -4.1957247110        3.0414591833        0.8394344784
 H        -4.3322151967        4.3939555161        2.0785315518
 H        -3.0103474056        3.2048333544        2.1632335664
 H        -2.2349591074        6.8363872453        0.6899376090
 H        -3.6370413160        6.4792409987        1.6028677662
 H        -2.1183603667        6.2013006416        2.2059096736
 Na        0.5857140172        1.6309015283        0.9388535736
