155

 C        -5.2478127470       -8.6205672006       -5.3421416505
 C        -5.0567904259       -7.1212405110       -4.7651270806
 C        -6.1187915993       -5.9950044032       -5.1372091314
 C        -6.0691998344       -4.8643385134       -3.9590001856
 C        -5.1190934477       -3.7322743362       -4.2970211354
 C        -5.7838529908       -5.3578041566       -6.5772684071
 C        -7.5014737668       -6.6775819249       -5.2566532951
 O        -4.0590838044       -6.8840159084       -4.1698011766
 O        -6.7976125233       -4.9468659479       -2.9509410419
 C        -4.9197397304       -2.7926359349       -3.0850525809
 C        -5.4971557359       -1.3894627739       -3.3919744361
 C        -5.5367111768       -0.3585979008       -2.2177348963
 C        -4.0950076444        0.2646121856       -2.0224843195
 C        -3.1399407841        0.4047641152       -3.2103253602
 O        -5.9763297265       -1.1664937816       -4.4885354916
 O        -3.8142807478        0.6788004688       -0.8874353965
 C        -6.4228723545        0.8423497236       -2.6415144927
 C        -6.0303706256       -1.0788226925       -0.9081241244
 C        -1.7855275796        0.9383195735       -2.7377305031
 C        -0.7368231286        0.5209647603       -3.7366874886
 C         0.7303137709        1.1220382762       -3.6416245896
 C         1.4781095079        0.9459490736       -2.3054934369
 C         2.5577021176       -0.0557862281       -2.1886813626
 C         1.5583522425        0.5344394243       -4.7877250478
 C         0.4476585440        2.6087766404       -3.9241613019
 O        -0.9689521624       -0.2566728452       -4.6634387621
 O         0.8395456597        1.4784878806       -1.3782790436
 C         2.1167671690       -1.4869186570       -2.1055652501
 C         3.1777199730       -2.4155024961       -1.7582161132
 C         2.9525860119       -3.9060512755       -1.4076410214
 C         2.1241165485       -3.9159899111       -0.0476374687
 C         2.7669790872       -3.2360782657        1.2494477783
 O         4.3505686227       -2.0153258211       -1.7046643005
 O         0.9823464470       -4.3415606960        0.0054364845
 C         2.3517118603       -4.6927470375       -2.5621018118
 C         4.3560814111       -4.5873043087       -1.0464094586
 C         1.7220440675       -2.9611131407        2.3480383133
 C         0.9290204488       -1.6756795615        2.0838178650
 C        -0.1402159911       -1.2165697674        3.0898953366
 C         0.3144810911        0.0982854300        3.8384852614
 C         0.2377230104       -0.0231830764        5.4018440342
 C        -1.4800604310       -0.9489260077        2.3696544746
 C        -0.4318353549       -2.4140809311        4.0375677881
 O         0.9858944768       -1.0709496964        1.0157183231
 O         0.3239221408        1.1387182678        3.2306579898
 C         1.4353960719        0.6604670102        5.9761353946
 C         2.6581336786       -0.0197631449        5.4847942438
 C         4.0844714207        0.5021105921        5.9979260826
 C         4.5000822193        1.7528184042        5.1627275189
 C         4.5675928991        1.5420840158        3.6560523351
 O         2.5893544355       -0.7275083480        4.4803596102
 O         4.6176012565        2.7939493940        5.7279233867
 C         3.9127382917        0.8354102420        7.4960992724
 C         5.1633820197       -0.7299428481        5.8109225523
 C         4.8926716232        2.9817956775        2.9331566554
 C         3.5709162722        3.4712126104        2.2587172584
 C         3.2367563835        4.9559934985        2.4793008045
 C         2.0423136355        5.4403896319        1.4112714936
 C         0.6331943186        4.9946224052        1.6106392635
 C         2.5882772855        4.9735929713        3.9678791597
 C         4.4350164292        5.8855745784        2.2716469609
 O         2.8104157344        2.6889738866        1.6330904907
 O         2.2642252102        6.3409897266        0.6169065171
 C        -0.1352157984        4.7275500717        0.3223096072
 C        -1.4122941602        3.9918868844        0.5726565625
 C        -2.7059132310        4.7164931048        0.8394256876
 C        -3.4914911012        4.9957434883       -0.4894748500
 C        -4.0325074029        3.7138302853       -1.3954393820
 O        -1.4194833150        2.7713453784        0.4228728922
 O        -3.8695319432        6.0646882917       -0.8829335625
 C        -3.7469964110        3.8332651748        1.7311807766
 C        -2.5090354106        6.0557293268        1.4514929571
 H        -6.1013460242       -8.6883976972       -6.0038255226
 H        -4.3172957520       -8.8978233498       -5.8122666663
 H        -5.3830740864       -9.2509731291       -4.4816911066
 H        -4.1766763694       -4.2553772753       -4.5136130096
 H        -5.4699798895       -3.2627651782       -5.2016199063
 H        -6.4242589387       -4.5217470447       -6.7846209553
 H        -5.8896888170       -6.0428299345       -7.3829866727
 H        -4.8023369578       -4.8764300641       -6.6270073319
 H        -8.3295740990       -5.9376590369       -5.0427103744
 H        -7.6412109517       -7.0857952957       -6.2247910109
 H        -7.6471855866       -7.5257639448       -4.5533711208
 H        -5.4098234823       -3.1902276609       -2.1872297527
 H        -3.8190299064       -2.8028285160       -2.8579802568
 H        -2.8880192247       -0.4397050516       -3.7716947862
 H        -3.5283302368        1.1450550898       -3.9162389348
 H        -7.3153801719        0.4867093981       -3.1073534696
 H        -5.9366449821        1.3062493103       -3.4655070557
 H        -6.6391844634        1.5742377753       -1.8017785655
 H        -6.0077654716       -0.4407028928       -0.0357887764
 H        -7.0235356982       -1.4797816389       -0.9069693728
 H        -5.4068362334       -1.8929122437       -0.7193646770
 H        -1.6583583231        0.5700495671       -1.7743937678
 H        -1.7173453128        2.0476873072       -2.6625731035
 H         3.2060975941        0.0488422011       -3.0738801911
 H         3.1143003905        0.2204431077       -1.2661631044
 H         1.7994663664       -0.5457998171       -4.6404365289
 H         2.4771858251        1.0144423010       -4.8695128611
 H         0.8838508871        0.4809812492       -5.6957780130
 H        -0.4811785855        2.9094802558       -3.5034208537
 H         1.1849299984        3.1463176199       -3.3399420403
 H         0.4684348098        2.7594404301       -5.0470804514
 H         1.3787436032       -1.6173596905       -1.3716796264
 H         1.6090541350       -1.7362242710       -3.0526757056
 H         3.5597762876       -3.8605521966        1.6865713364
 H         3.2439899482       -2.3227836391        0.9448525409
 H         2.5076888653       -5.8160657554       -2.5273461614
 H         2.7256429369       -4.4310635626       -3.5256269164
 H         1.3173384081       -4.5767933174       -2.5928583103
 H         5.0248796170       -4.2616403134       -1.9018489871
 H         4.8016621261       -3.9847642806       -0.2117806013
 H         4.3694997797       -5.6653268482       -0.8717017112
 H         2.3082543032       -2.9104258035        3.2302413756
 H         1.0600890661       -3.9040653566        2.3736349959
 H        -0.7189197086        0.4893187335        5.8393295170
 H         0.1085482202       -1.0109678653        5.7398013969
 H        -1.6915226022       -1.9431901123        1.9585579966
 H        -1.3449431229       -0.1881581984        1.5278517135
 H        -2.2511695672       -0.5502420733        3.0996877315
 H        -1.2988385979       -2.1216356643        4.7274741542
 H        -0.7441422154       -3.2342852925        3.4371199469
 H         0.5051220355       -2.6727698833        4.5449835428
 H         1.5557417035        1.6861148705        5.6258718389
 H         1.3213720547        0.7050351613        7.1136436734
 H         5.4090546982        0.8494299961        3.4604648569
 H         3.7122134211        1.0875655420        3.2548609613
 H         3.2882437887        1.7080886298        7.5877428908
 H         4.8079172433        1.2074332223        7.9650630393
 H         3.4238145094        0.0435247231        8.0912774549
 H         5.1946667448       -1.3253172560        4.9095207530
 H         6.1032321587       -0.1905687720        6.0557792868
 H         5.0556111346       -1.3973397382        6.6158783347
 H         5.6313874202        2.6468278525        2.2595262029
 H         5.3811409741        3.7262432717        3.6260102128
 H         0.5580508126        4.1638465218        2.3204010881
 H         0.1014298038        5.7834573922        2.1579444640
 H         3.0687574058        5.8740302723        4.4135695733
 H         3.0154665042        4.1657982333        4.5478738779
 H         1.4800404727        4.9290795561        3.9962387208
 H         4.4125756468        6.0237198395        1.1577567864
 H         4.3052719514        6.7446999861        2.8651392147
 H         5.2972117237        5.4518002352        2.6621616001
 H        -0.3709726629        5.6060999318       -0.2965330151
 H         0.4096433839        4.0147590209       -0.3115011146
 H        -3.1836218261        3.4479902974       -2.0291348035
 H        -4.2997042692        2.8048870226       -0.8816859077
 H        -4.8072887405        4.0309187900       -2.0925399137
 H        -3.5065275434        2.8021045416        1.6842803743
 H        -4.7980590511        4.0867565053        1.3572415782
 H        -3.6202381417        4.1859311671        2.7259198235
 H        -2.0828432793        6.7971029706        0.7568900724
 H        -3.4794253790        6.4672012765        1.8271335136
 H        -1.9039479663        6.1842199176        2.2865860157
 Na        0.8133711333        1.4181568478        0.8183585340
