155

 C        -5.2433394576       -9.2483839195       -5.5518455262
 C        -5.0428925956       -7.7230598788       -5.2807970964
 C        -6.3628592658       -6.8111694738       -4.8689418303
 C        -5.8451950858       -5.7340924492       -3.8301363364
 C        -4.8778470289       -4.6460534648       -4.2743211242
 C        -6.7140557434       -6.1432004583       -6.2217744756
 C        -7.5683045467       -7.5100358677       -4.1408117933
 O        -4.0466295766       -7.1832780581       -5.6409024459
 O        -6.1734991765       -5.6543166883       -2.6378450267
 C        -4.5346786629       -3.6515517774       -3.1515110405
 C        -4.5763868473       -2.1573584073       -3.7029816938
 C        -4.2917606143       -0.9677583292       -2.7168621073
 C        -2.7429544007       -0.6626091644       -2.7274794143
 C        -2.1465345488       -0.1164741842       -4.0280792549
 O        -5.0247450738       -1.9156366780       -4.8273427057
 O        -2.0598360779       -0.9867554434       -1.7934948174
 C        -5.1671342869        0.2389375439       -3.2542674131
 C        -4.5617432111       -1.3989079285       -1.2326160912
 C        -1.3048833412        1.1490090374       -3.8019189958
 C         0.1761878672        0.9456634862       -3.9520451529
 C         1.2495424184        2.0109496374       -3.2896272998
 C         1.5810153776        1.7347821102       -1.7425752457
 C         2.7957521761        0.9592866133       -1.3427611664
 C         2.5046876391        1.9192961905       -4.2502093720
 C         0.6484059377        3.4879163309       -3.4296384574
 O         0.6413972507       -0.0397221488       -4.5527772176
 O         0.7126765294        2.1440891109       -0.9406603047
 C         2.4393127226       -0.4834701252       -1.8028301487
 C         3.5005735885       -1.5432937820       -1.3544631829
 C         3.0920858533       -3.1889826946       -1.4252532959
 C         1.9381202105       -3.2592942090       -0.3522106159
 C         2.3027043599       -3.4076248087        1.1570511421
 O         4.5995018350       -1.3747522943       -0.9472991975
 O         0.7865315039       -2.9311445047       -0.6036502401
 C         2.5614866114       -3.5500357242       -2.8626125148
 C         4.3126309860       -3.9857072734       -1.0854617193
 C         1.0353275532       -3.0480061396        2.0427172445
 C         0.4982683271       -1.5966381073        1.7514011256
 C        -0.9876782875       -1.2046244919        2.3981655034
 C        -0.6256161648       -0.2941989384        3.6593615865
 C        -0.6389533706       -0.9519849617        5.0682685815
 C        -1.6444075648       -0.3269718423        1.3439693478
 C        -2.0369176505       -2.2938592050        2.7299459340
 O         1.0521423217       -0.6882963819        1.1485664433
 O        -0.1651932804        0.7939489453        3.5925125877
 C         0.3395479684       -0.3330569287        6.0724984757
 C         1.8056731446       -0.5852358053        5.6070869430
 C         2.9548559534        0.3289739284        6.1021078601
 C         3.1106895898        1.6541822598        5.1920247441
 C         4.2734838493        1.9774505104        4.0802225763
 O         1.9725104610       -1.3883992335        4.7100283823
 O         2.2575255928        2.5195490183        5.3659406041
 C         2.8677984216        0.5352783491        7.6159001101
 C         4.3597818940       -0.5750550184        5.7313391648
 C         4.3969845350        3.4157804018        3.6828700539
 C         3.5295046627        3.9231043371        2.4405699045
 C         3.3333967153        5.4233585442        2.2317311975
 C         1.9126529535        5.7018034275        1.4985515514
 C         0.7540930567        5.0622512506        2.1143485615
 C         3.3476981953        6.2478929712        3.5692041850
 C         4.5555323919        5.9824180711        1.4190407223
 O         3.1006335571        3.1350606927        1.5427386185
 O         1.8112498706        6.5821527322        0.6941839720
 C        -0.5100372722        5.2672909715        1.3400516810
 C        -1.4873428855        4.0991290804        1.3249952113
 C        -3.0278965286        4.3791733431        1.1961049189
 C        -3.4735251125        4.8224546514       -0.2922125278
 C        -4.0303578790        3.7653657628       -1.2169506902
 O        -1.0873459538        2.9814407144        1.4900347692
 O        -3.2557733258        5.9437087256       -0.6353170602
 C        -3.6822242987        2.9912353548        1.7265277480
 C        -3.4683857909        5.4675704805        2.0826642680
 H        -5.7891522070       -9.3337122703       -6.4867552969
 H        -4.2757919121       -9.6853597432       -5.5232221958
 H        -5.7781749777       -9.6482164606       -4.7439357248
 H        -3.9313593810       -5.0712700554       -4.6973136836
 H        -5.3208558678       -4.0487993327       -5.0906877960
 H        -7.4049181545       -5.3293930177       -6.1340533882
 H        -7.2024000651       -6.7665340478       -7.0027148782
 H        -5.9674928076       -5.6257003839       -6.7385880253
 H        -7.9676581479       -6.8067965479       -3.4347599132
 H        -8.3249427986       -7.7216514487       -4.9437276260
 H        -7.3245102095       -8.4983984890       -3.7284723423
 H        -5.3801346500       -3.7559096761       -2.3323206375
 H        -3.6129593580       -3.8272964920       -2.7156730173
 H        -1.6535989401       -0.9897893260       -4.5851181567
 H        -2.9600428417       -0.0029971642       -4.7029475624
 H        -6.2321082236       -0.1182706793       -3.2097820774
 H        -5.1589521921        0.4906556866       -4.3149965838
 H        -5.1485841054        1.1365204106       -2.6840100229
 H        -4.2450100466       -0.6524969232       -0.5669740718
 H        -5.6090863462       -1.5482064044       -1.1433249312
 H        -4.0820488333       -2.3542375455       -1.0889370684
 H        -1.5550299460        1.6428066297       -2.8258531616
 H        -1.6034430613        1.8509104769       -4.6041461792
 H         3.7093190619        1.0824302987       -1.9238479500
 H         3.0274521500        0.9622952827       -0.2996115558
 H         3.2652349269        1.1433315340       -4.0323264818
 H         3.0711219118        2.9165610559       -4.1678311216
 H         2.1792005470        1.7216670694       -5.2002554921
 H        -0.2177313223        3.7778665629       -2.8195752393
 H         1.3903645415        4.1820226749       -3.0121529118
 H         0.4556763797        3.5991285101       -4.4493521284
 H         1.5330934648       -0.9809350569       -1.2510092189
 H         2.1122131102       -0.4876022200       -2.8179229811
 H         2.6134402561       -4.4508315024        1.3423959315
 H         3.0855323253       -2.7331371431        1.3880420861
 H         2.6128338652       -2.6869100655       -3.4420867096
 H         1.5379087663       -3.9663372205       -2.8589382101
 H         3.2002692608       -4.3482519208       -3.2854421824
 H         5.1741913120       -3.5934011448       -1.6551581671
 H         4.6236869097       -3.7717472087       -0.0254659453
 H         4.1181678381       -5.1226002941       -1.1418144081
 H         1.2111030084       -3.0990409835        3.0781071795
 H         0.2375139661       -3.8364383431        1.9188650854
 H        -1.6015602261       -0.7414276898        5.4605679599
 H        -0.4625318100       -2.0480119648        5.0078696217
 H        -1.4983009145       -0.8175841393        0.3330701830
 H        -1.1493754157        0.6134668100        1.5781772888
 H        -2.6956725749       -0.0258396007        1.5764130412
 H        -2.8426743918       -1.9850293824        3.3504932210
 H        -2.5074959523       -2.6837619724        1.7713440903
 H        -1.7107418450       -3.2444594077        3.1836597931
 H         0.1835483372        0.7555647756        6.2249009406
 H         0.1063178331       -0.6536769681        7.1139636602
 H         5.2330997603        1.4157053852        4.2195646617
 H         3.7646087583        1.5929246187        3.1296091515
 H         1.9890161797        1.1051909641        7.7913815683
 H         3.7483965612        1.0487997653        8.0841113570
 H         2.7375895337       -0.4129349427        8.1862587626
 H         4.3399112774       -1.0060788083        4.7256853638
 H         5.3357128294       -0.1283165507        5.8195958913
 H         4.3736188674       -1.5064508650        6.3262981416
 H         5.4490591912        3.7329457412        3.5712880146
 H         4.0478265426        4.0710918454        4.4841330182
 H         0.9021769419        3.9188803650        2.0355953434
 H         0.6681609039        5.2902052787        3.1599218329
 H         3.6642561201        7.2842909204        3.4847193335
 H         4.2114277170        5.8556668095        4.1837850587
 H         2.3654351919        6.2141020943        4.0716891642
 H         4.8037799813        5.3354175292        0.6354669169
 H         4.3749866774        6.9818818842        1.1668648237
 H         5.3422591132        6.0885335899        2.2143208089
 H        -1.0055130077        6.1626176399        1.7165585391
 H        -0.2677745736        5.4433215427        0.2495939239
 H        -4.1387843758        4.2136251873       -2.2062508954
 H        -3.5458136731        2.7899470274       -1.2907480529
 H        -5.0326243340        3.3887579911       -0.9871714170
 H        -4.6684154249        2.6613403344        1.3026499457
 H        -3.8564039332        3.0793810142        2.7520808332
 H        -2.9772397638        2.1502910367        1.5336065993
 H        -3.2700790143        6.4521296838        1.6534560539
 H        -4.5238826934        5.4052895443        2.2672887613
 H        -2.9260280676        5.4829442759        3.0815265557
 Na        1.0441353871        1.7101254666        1.4328769639
