155

 C        -5.4006356992       -9.4127634569       -5.3693527458
 C        -5.1547391744       -7.9259674488       -5.5059787872
 C        -6.3070452444       -6.9607976361       -4.8690281544
 C        -5.6123196963       -5.9188559296       -3.9635831213
 C        -5.2878244419       -4.4950663850       -4.5058352781
 C        -7.1469875558       -6.3970265094       -5.9592675390
 C        -7.1434989651       -7.8849616503       -3.9215494710
 O        -4.0910107925       -7.5842465768       -5.9325447891
 O        -5.2034659249       -6.2136160127       -2.8387595786
 C        -4.5947024524       -3.6461822763       -3.4178690541
 C        -3.7371525330       -2.5182967284       -4.0489264869
 C        -3.5962743110       -1.2443781675       -3.0943502421
 C        -2.0146590871       -0.9039194975       -3.0744950820
 C        -1.4855867682       -0.1728348852       -4.3105451480
 O        -3.3080884959       -2.4938760994       -5.1661307311
 O        -1.2862339915       -1.3225560779       -2.1846162981
 C        -4.5583630623       -0.0451727883       -3.5569642197
 C        -3.9329828734       -1.4747666252       -1.5500563738
 C        -1.1564324323        1.3062408337       -3.9310643797
 C         0.3363756648        1.5195117222       -4.0194162476
 C         1.2740223491        2.6050435019       -2.9655573667
 C         1.4125009757        1.8071496244       -1.6914624121
 C         2.6482529322        1.0147323879       -1.3963606850
 C         2.5680245763        3.0612584760       -3.7179916039
 C         0.4052601499        3.8540716089       -2.7151767983
 O         0.9535940682        0.9703043841       -4.8177127562
 O         0.5240239434        1.9009327741       -0.8607229706
 C         2.6231643915       -0.5001796322       -1.8415186116
 C         3.6698330821       -1.3841918058       -1.2880422191
 C         3.4494466390       -2.9319896063       -1.4673178053
 C         2.1469732387       -3.1764624155       -0.4818708978
 C         2.3509473905       -3.2900209738        1.0638483709
 O         4.4777406669       -0.9216411098       -0.5461970721
 O         1.0237565862       -3.2007154396       -0.8423001499
 C         3.0774486199       -3.1493725755       -2.9533069410
 C         4.6792131698       -3.6695233521       -0.9223007098
 C         1.0168904511       -2.9905638158        1.7907211382
 C         0.5233909291       -1.5775642035        1.7024456228
 C        -0.9029729688       -1.1949308981        2.2707818043
 C        -0.9080543531       -0.1520313745        3.5860148115
 C        -1.0997863522       -0.5510697131        5.1135407883
 C        -1.7083922325       -0.6049753475        1.1360075671
 C        -1.7174728142       -2.4305635314        2.7247066773
 O         1.2281566068       -0.6125192149        1.3376674938
 O        -0.6029010154        1.0128391561        3.4376004648
 C         0.0349375781        0.0584772397        5.9414343250
 C         1.4031202990       -0.3576291189        5.4475380312
 C         2.6955165264        0.1073843594        6.1413725139
 C         2.8913755168        1.6818114106        5.8550090037
 C         3.6615327182        2.0585396452        4.6463057520
 O         1.4357676704       -0.9971538054        4.3849393618
 O         2.2513537717        2.3988356105        6.5070955069
 C         2.6512013819       -0.0593931995        7.6818547578
 C         3.8552597436       -0.7694362433        5.5522806477
 C         3.7220568683        3.4682174050        4.1531871842
 C         3.1122788608        3.6352732529        2.7900606006
 C         3.1288102389        5.0042616952        1.9858489193
 C         1.6545545049        5.5351272134        1.4904387659
 C         0.5538359889        5.2755431843        2.4319972438
 C         3.7515467049        6.1973344617        2.6258088670
 C         3.7912891038        4.7479072651        0.5604889327
 O         2.6224685864        2.6118868137        2.2860703484
 O         1.5638313108        6.2700030310        0.4997738301
 C        -0.8460641083        5.5058211744        1.7474904323
 C        -1.7883729956        4.2527184399        1.5657231163
 C        -3.2755451235        4.6232901526        1.4139580331
 C        -3.4223765503        4.9253883216       -0.1573008153
 C        -4.4539063969        4.1688119788       -0.9775932400
 O        -1.3765940015        3.0927206174        1.6213792901
 O        -2.7829747470        5.8403722893       -0.6483275237
 C        -3.9960476665        3.2762160510        1.6224832770
 C        -3.7906792312        5.8048305651        2.2728349398
 H        -6.4568234420       -9.7785563381       -5.6535511540
 H        -4.6390041846       -9.9240649659       -5.9769289462
 H        -5.2364198620       -9.5086051778       -4.3211540302
 H        -4.6976135801       -4.6622496354       -5.3991677784
 H        -6.1465117060       -3.9876494141       -4.8889739240
 H        -8.0324772402       -5.7894225010       -5.6781881648
 H        -7.5991698536       -7.1756876932       -6.6207176215
 H        -6.7227415480       -5.7585577120       -6.7247581339
 H        -7.7855424818       -7.2251692589       -3.3497013109
 H        -7.7888491570       -8.5629086156       -4.5513095814
 H        -6.4957681263       -8.3281446477       -3.1955447085
 H        -5.3098949016       -3.1367636168       -2.7624425095
 H        -4.0409312950       -4.2275751805       -2.7949349946
 H        -0.5270403656       -0.7258850943       -4.6263150552
 H        -2.3100638011       -0.3295041992       -4.9728042090
 H        -5.6060043283       -0.4426952271       -3.5163269789
 H        -4.4118726045        0.4430672204       -4.5650133386
 H        -4.5797500850        0.7578220428       -2.8871617875
 H        -3.8024753026       -0.4992034929       -1.0565113772
 H        -5.0128231614       -1.7957359273       -1.3911597943
 H        -3.1169117180       -2.1428597180       -1.2224116177
 H        -1.5118877533        1.5926851787       -2.9785909815
 H        -1.5436799882        1.9645137547       -4.6063761311
 H         3.5578355729        1.4683703686       -1.9132006017
 H         2.8382563178        1.1794906382       -0.3507441950
 H         3.3092921860        2.2570159138       -3.7085900581
 H         3.0944821625        3.9371671876       -3.3233992786
 H         2.3383062775        3.2066157607       -4.8445749603
 H        -0.4097385340        3.5276553715       -2.0741062685
 H         0.9878326206        4.6562671932       -2.3386920998
 H        -0.0592939608        4.4173876196       -3.5581809017
 H         1.5955126858       -0.8134159611       -1.6145580569
 H         2.7674045974       -0.3605030753       -2.9386705477
 H         2.6423879088       -4.3233092819        1.3201120702
 H         3.1428863460       -2.6056018977        1.4088278153
 H         2.1825967178       -3.7140296315       -3.1454265270
 H         3.8770149000       -3.7351745513       -3.3627830133
 H         2.9881689155       -2.1647721815       -3.4791357883
 H         5.5490914706       -3.3497529890       -1.4440073332
 H         4.7986816272       -3.4137957946        0.0944063240
 H         4.7018901788       -4.7083641038       -1.0945160495
 H         1.1367099613       -3.2339049598        2.8858018692
 H         0.2738321446       -3.7664781014        1.4938691121
 H        -2.0287447892       -0.2164713429        5.4877885596
 H        -1.2130269702       -1.6744143738        5.2745149622
 H        -1.6474264359       -1.2284330135        0.2666171610
 H        -1.2566646238        0.3528469925        0.9377325807
 H        -2.6821826309       -0.5809591562        1.4658011743
 H        -2.6676554819       -2.1755361060        3.0874272645
 H        -1.9141283900       -3.2208985990        1.9423051578
 H        -1.2437858461       -2.9383472718        3.5615590806
 H         0.0475661336        1.1597129382        5.7303012297
 H        -0.1675702410        0.1127829048        7.0044387463
 H         4.6566812963        1.7558622864        4.7880307562
 H         3.3190809194        1.4459195363        3.8208440717
 H         1.8259998752        0.5149287263        8.0223932144
 H         3.4948175468        0.3863121291        8.1639013620
 H         2.3442586333       -1.1231535475        7.9889707304
 H         4.0919652254       -0.5138366334        4.4996153187
 H         4.7342986498       -0.9374267214        6.1552414706
 H         3.4740422803       -1.8283327620        5.4861544043
 H         4.7677959643        3.8982829267        4.1906168070
 H         3.1127301112        4.2030826979        4.7300971329
 H         0.6238863058        4.2568038233        2.9055598885
 H         0.6210369611        5.9367028578        3.2477548703
 H         3.8557150256        7.0918590757        2.0322920803
 H         4.6754367558        5.8197421014        3.0378856226
 H         3.4075570574        6.5835425291        3.5682892872
 H         3.1331555648        4.0105248562       -0.0029939772
 H         3.7076383993        5.6914672160        0.0299621323
 H         4.7606728175        4.3411445443        0.6037640776
 H        -1.4486651548        6.2258979392        2.3032982658
 H        -0.6615185714        6.0107302396        0.8037229492
 H        -4.8741297579        4.4783524253       -1.9291010849
 H        -4.1636190850        3.0868884348       -0.9707091713
 H        -5.3832527093        4.1178522312       -0.4282365880
 H        -3.6981306471        2.8384519915        2.5507567779
 H        -3.7797906192        2.5954581319        0.8283037504
 H        -5.0877717602        3.3228280285        1.7916654083
 H        -3.2481970968        6.6329795925        1.8065365255
 H        -4.8771340973        6.0175968418        2.2720831643
 H        -3.4677457189        5.7275238973        3.3583942864
 Na        0.5136883676        1.4978298101        1.4429782598
