155

 C        -4.6614609930       -9.4859999220       -5.6326232198
 C        -5.1304849348       -7.9686715587       -5.8796429171
 C        -5.9477388667       -7.1644762636       -4.7925000683
 C        -4.9973273836       -6.1309164497       -3.9926395240
 C        -3.8467683111       -5.2234831148       -4.5970510273
 C        -6.9886473509       -6.2666130060       -5.6353389198
 C        -6.6507997070       -7.9847541239       -3.6790712996
 O        -4.7161287314       -7.3434067121       -6.8241024328
 O        -5.2484920456       -5.9572602029       -2.7790583758
 C        -3.7489660503       -3.9269384663       -3.7608661493
 C        -2.8462632645       -2.7915268100       -4.3174771823
 C        -3.0531346494       -1.3423691543       -3.6073970067
 C        -1.6400589871       -1.0527573980       -3.2376369020
 C        -0.6968846276       -0.3520554901       -4.2085219203
 O        -2.0132827282       -2.9276711931       -5.1432569476
 O        -1.2789115918       -1.4613594749       -2.1561580280
 C        -3.7148412377       -0.3990140902       -4.6075692071
 C        -3.9094070797       -1.5324749851       -2.3777661482
 C        -0.7682886857        1.2185794708       -4.1723613850
 C         0.6645510283        1.8503523952       -4.3464228231
 C         0.9627883004        3.0707545051       -3.4492039020
 C         1.2983223996        2.3125402277       -2.0775742208
 C         2.4900385432        1.4530233507       -2.0212067725
 C         2.2023863469        3.8192628549       -4.1209758187
 C        -0.1599694046        3.9870100143       -3.2865642809
 O         1.4744888313        1.3389166818       -5.0235205050
 O         0.3879979273        2.3727865667       -1.2908463272
 C         2.2788479444       -0.0916156293       -1.8113570738
 C         3.4644152315       -0.8092741230       -1.2414927000
 C         3.5883851243       -2.3805083531       -1.1974241128
 C         2.6216164753       -2.9392774212       -0.1716522467
 C         2.5788059861       -2.4395502249        1.2989198811
 O         4.3671551895       -0.1310535766       -0.8299930591
 O         1.9235501850       -3.8890131952       -0.5214575123
 C         3.1451821373       -2.8521841382       -2.5936404222
 C         5.0878389245       -2.7849043818       -0.9382159204
 C         1.1851103616       -2.6795980920        2.0076590098
 C         0.2793701500       -1.4420850478        1.8545836315
 C        -1.1184034677       -1.4374626832        2.5334330255
 C        -0.9848146696       -0.2956077006        3.6768102381
 C        -1.2616372155       -0.6116336766        5.1768570297
 C        -2.2641795466       -1.0095166233        1.4240922238
 C        -1.5001760130       -2.7894856526        3.2421316987
 O         0.5578522934       -0.4969666308        1.1198395372
 O        -0.6591781488        0.8289648094        3.3203250045
 C        -0.1283590190       -0.0009544240        5.9978667242
 C         1.2525676273       -0.7795868999        5.8416907778
 C         2.4434088957        0.0024497932        6.5148985761
 C         2.6391980577        1.3729033678        5.8113646252
 C         3.9226464123        1.7313674614        5.0062212492
 O         1.3975345200       -1.5253246776        4.9323173309
 O         1.9870784870        2.2914143894        6.2120183009
 C         2.0105851686        0.3137563067        7.9669760774
 C         3.7793211386       -0.8970672101        6.4703168594
 C         3.7014904844        3.0120978406        4.2237341453
 C         2.6638970723        3.1291570193        3.1150198958
 C         2.7171064298        4.3853553559        2.2072928856
 C         1.2086468603        4.5967300362        1.6970806404
 C         0.2602627821        5.2453226749        2.7389896952
 C         3.4078333610        5.5995455018        2.8894621660
 C         3.6192644961        3.9621822397        0.9967163081
 O         1.8572094201        2.2201206023        2.8968134013
 O         0.9026018168        4.2028328108        0.5887834288
 C        -1.0600377300        5.7467700059        2.0457073790
 C        -2.0589983161        4.5358980005        1.7789786230
 C        -3.5106000030        4.8694541545        1.3175115131
 C        -3.5768923448        5.4707239107       -0.0627637598
 C        -4.9667957634        5.5555000507       -0.7275229264
 O        -1.7476131082        3.3774806986        1.8497943940
 O        -2.6167157135        5.7953632585       -0.7504529044
 C        -4.4066264846        3.5842518024        1.4415878619
 C        -4.1844500077        6.1104474087        2.2343644992
 H        -5.6067686073      -10.1179374937       -5.5539881785
 H        -3.9625709518       -9.9167108467       -6.3792527045
 H        -4.1743395630       -9.4511676436       -4.6647861444
 H        -2.9226341446       -5.6904851664       -4.5001682878
 H        -4.1187284535       -5.0041447225       -5.6214899839
 H        -7.4206763904       -5.4812351906       -4.9790668786
 H        -7.8546501755       -6.8625803307       -6.0861726982
 H        -6.7739461845       -5.7385387485       -6.5406615132
 H        -7.3221894129       -7.3614475932       -3.1377943102
 H        -7.2897492083       -8.7639072944       -4.1362953594
 H        -5.8909455834       -8.4923034575       -3.1242976058
 H        -4.7446052921       -3.4985610387       -3.8190862606
 H        -3.4663752400       -4.1336589245       -2.7522092170
 H         0.3819539065       -0.6685079813       -4.1184830205
 H        -0.8623075938       -0.5842641347       -5.2720493026
 H        -4.6847612540       -0.7845183839       -4.9193873383
 H        -3.1208055848       -0.3893877374       -5.5351203408
 H        -3.7559932995        0.6157804636       -4.1981742007
 H        -4.0461609733       -0.5207683124       -2.0542651960
 H        -4.8636612577       -1.9884651937       -2.5992316656
 H        -3.3437814404       -2.0223079029       -1.5844088414
 H        -1.1241793377        1.5035939838       -3.2268018266
 H        -1.4780359769        1.5473293550       -4.8435638051
 H         2.8912760841        1.6239496093       -3.0031498119
 H         3.1727162594        1.8216972938       -1.1877810273
 H         3.1032128155        3.3551873717       -3.7580166117
 H         2.2204191734        4.9001021917       -3.8703958073
 H         2.1154220723        3.7669797186       -5.2490694468
 H        -1.0282820346        3.4529565403       -2.8653799916
 H        -0.0621292292        4.7418483262       -2.4844631380
 H        -0.5628500698        4.4602018417       -4.1722750577
 H         1.2190767063       -0.2021596933       -1.4165130474
 H         2.2464073258       -0.5124840891       -2.8059559465
 H         3.4087098225       -3.0171537486        1.7969314063
 H         2.8510418683       -1.4091530692        1.4721739064
 H         3.3727879204       -3.8559120530       -2.6726187377
 H         3.6558699891       -2.2763656389       -3.3788683468
 H         2.0990034588       -2.6439149251       -2.7980595738
 H         5.7507008255       -2.5177589191       -1.7454080448
 H         5.4932952316       -2.2869413647       -0.0888526686
 H         5.1098497183       -3.8638378102       -0.7023372442
 H         1.3156161174       -2.9963345779        3.0301996485
 H         0.5976762625       -3.5380251205        1.4990366749
 H        -2.1547767204       -0.1544576842        5.5849901863
 H        -1.3083822717       -1.6659989796        5.3398363175
 H        -2.4997097107       -1.8453960396        0.7666609410
 H        -1.7650194742       -0.1933334920        0.9234859400
 H        -3.1145769669       -0.6152153683        1.9628323434
 H        -2.4196204762       -2.6853672692        3.7478058623
 H        -1.6675679523       -3.6296662880        2.5205916673
 H        -0.6985610528       -3.0284380443        3.9159164729
 H        -0.0967032956        1.0327370712        5.7428265731
 H        -0.5009408266       -0.1847347124        7.0708478165
 H         4.8652814913        1.8882297557        5.5543314189
 H         4.1572232848        0.9718995234        4.3551520865
 H         1.3851056087        1.1725552153        7.8880546788
 H         2.9250847484        0.6352462960        8.5192170244
 H         1.5630236549       -0.6041775986        8.4988588599
 H         3.7465601112       -1.1855600649        5.3852198241
 H         4.6807169095       -0.2876301534        6.6238562902
 H         3.6897046377       -1.8460838779        7.0378527967
 H         4.6149201805        3.2470433311        3.6614938412
 H         3.4777524903        3.8789703756        4.9312690197
 H         0.0754787224        4.6141213429        3.5685017615
 H         0.6614435090        6.1710523726        3.1711284960
 H         3.4470215130        6.4153141999        2.1985574329
 H         4.5000886701        5.4083446270        2.9923216416
 H         2.9251067025        5.9492910375        3.7992534141
 H         3.0546039602        3.0783751189        0.5509195260
 H         3.9801306106        4.6285014297        0.2556443176
 H         4.5098530424        3.5006888176        1.3891740608
 H        -1.5399219198        6.5578323832        2.5532354761
 H        -0.8759635749        6.1227514507        1.0106797806
 H        -4.9809859205        5.0893381122       -1.6983473734
 H        -5.7677525858        4.9475827062       -0.2640523502
 H        -5.1939954094        6.6128788629       -0.5533873072
 H        -5.2956635569        3.9217382919        1.9847951436
 H        -3.9234243899        2.7630345777        1.8968475154
 H        -4.7468089261        3.1892801360        0.4218386996
 H        -3.4777692418        6.9306362698        2.1934282554
 H        -5.0981308212        6.3212226209        1.7585647505
 H        -4.2442110382        5.7810429751        3.3175310701
 Na        0.0616318074        1.9202231515        1.1125996092
