155

 C        -4.0079796970       -8.9789058988       -5.7459355439
 C        -4.7843907861       -7.6180975820       -6.0156645057
 C        -5.8365513652       -7.2176570264       -4.8947299498
 C        -4.9607853548       -6.3979892970       -3.8293287725
 C        -3.9255388521       -5.3809545221       -4.4618068251
 C        -6.8968010263       -6.2676958074       -5.5717916878
 C        -6.4823010828       -8.4428353183       -4.1848756707
 O        -4.5161786383       -6.9219707018       -6.9273260627
 O        -4.9671273326       -6.5549989653       -2.5918994602
 C        -3.3050801983       -4.3212253786       -3.5619762867
 C        -2.7002720827       -3.1677896234       -4.4285829978
 C        -2.9057916850       -1.6780687388       -4.0435282963
 C        -1.5523370407       -1.1486050753       -3.5004122463
 C        -0.4144939151       -0.5975821804       -4.4000234859
 O        -2.1900768196       -3.4710438861       -5.4782350580
 O        -1.3257645301       -1.2265479773       -2.3128133377
 C        -3.2067348639       -0.9868699030       -5.3721733039
 C        -3.9936612186       -1.2812188565       -3.0697348778
 C        -0.6743171721        0.8497140784       -4.8007514862
 C         0.5391328056        1.7456544652       -4.4615477812
 C         0.5867150529        2.8308442964       -3.4253492024
 C         0.9246169767        2.2046586018       -1.8524210815
 C         2.3092359330        1.5582809507       -1.5413921516
 C         1.7691278618        3.9136156132       -3.7197295844
 C        -0.7748153646        3.5517111959       -3.1758186329
 O         1.4101911850        1.6225386081       -5.2221955711
 O         0.0834230634        2.3944976369       -1.0272438134
 C         2.4477912635        0.0473211161       -1.9911662399
 C         3.6557169619       -0.5128157295       -1.2300545598
 C         3.7210808496       -2.1062122901       -1.1097380227
 C         2.7117641212       -2.5606886958        0.0095559544
 C         2.9077640036       -2.1257003248        1.4948730072
 O         4.4490158539        0.1739303995       -0.6169638635
 O         1.7772534763       -3.2406870449       -0.3140257035
 C         3.2187763358       -2.7751077472       -2.5017572267
 C         5.1931624537       -2.5551434578       -0.8874517731
 C         1.5663042544       -2.0715995457        2.3053231600
 C         0.4508713777       -1.1432753819        1.7083581878
 C        -0.9593671499       -1.2280464629        2.3368883578
 C        -1.0931525932       -0.2181754683        3.6109029691
 C        -1.3551149648       -0.8527744522        5.0535162824
 C        -1.9783137865       -0.7151926619        1.2051659834
 C        -1.3523420482       -2.6827463397        2.7098284948
 O         0.7647553326       -0.2855448557        0.8565150416
 O        -1.0393479152        0.9971986578        3.3457922211
 C        -0.4066393315       -0.2758615738        6.1684210872
 C         1.0322981347       -0.6703652193        5.9919294928
 C         2.1165318239        0.1776632088        6.7744187528
 C         2.6093978904        1.4101097541        5.8092801681
 C         3.7975717565        1.2364534749        4.7500811894
 O         1.4953218553       -1.5037421911        5.2416769901
 O         2.1789254461        2.4998776049        6.0639848177
 C         1.5482047280        0.7481540337        8.1320681134
 C         3.1821823434       -0.8354270506        7.1742756742
 C         3.8189924760        2.4968225492        3.9197854587
 C         2.6312586313        2.8533838003        3.1288682867
 C         2.6385130234        4.3011305171        2.5545677825
 C         1.2296736591        4.3856775307        1.8886286307
 C         0.1044429527        4.9247287105        2.6937515147
 C         2.9339446953        5.3548528852        3.6704852059
 C         3.7512083732        4.3056481167        1.4916442632
 O         1.7313108715        2.0730817550        2.9047060254
 O         1.1067635069        4.1530719443        0.6572808172
 C        -1.1278059632        5.3626816912        1.9556385560
 C        -2.1943389028        4.2751257609        1.6218251723
 C        -3.5760964905        4.8471749154        1.2721202436
 C        -3.5189765890        5.7353068464       -0.0346693401
 C        -4.7858818086        6.5905134886       -0.4063779987
 O        -1.9245582209        3.0838354807        1.5535778583
 O        -2.5141431191        5.8744983891       -0.7331685511
 C        -4.5674770682        3.5759590807        1.0978789215
 C        -4.1695878982        5.6088748718        2.5575638478
 H        -4.6623536463       -9.6135515496       -5.2403277313
 H        -3.4488844000       -9.3966644266       -6.6052420942
 H        -3.1442785131       -8.7577904587       -5.0349474079
 H        -3.1541500719       -6.0446717191       -4.8952225678
 H        -4.4450248288       -4.9737256596       -5.3014139569
 H        -7.5519481914       -5.6357195232       -4.9536691563
 H        -7.5993227266       -6.7591486034       -6.2570853207
 H        -6.3811318733       -5.4887883523       -6.1655870633
 H        -7.2595020881       -8.0522350458       -3.4841310856
 H        -7.0116444615       -8.9804189760       -4.9160860149
 H        -5.8781307629       -9.0821481250       -3.5095904871
 H        -3.9991717627       -3.9336951473       -2.8268606908
 H        -2.4286957915       -4.7787324726       -2.9672535507
 H         0.3753097632       -0.7022122185       -3.7604683060
 H        -0.2523103448       -1.3056037742       -5.2314301614
 H        -4.1939503912       -1.2254911600       -5.7296923710
 H        -2.4038415511       -1.1302935636       -6.0379586478
 H        -3.2853524016        0.1088866448       -5.1274344704
 H        -4.1548140292       -0.1672652669       -3.1037628382
 H        -4.9405856944       -1.7010458316       -3.3591763954
 H        -3.7030596286       -1.5874333371       -2.0406901509
 H        -1.6858820428        1.1883253423       -4.5228405115
 H        -0.7452682964        0.7856792162       -5.9591321264
 H         3.1365892065        2.1876737020       -1.8759144077
 H         2.4564342540        1.5142500037       -0.4624282997
 H         2.4622105922        3.5931961156       -4.5745030629
 H         2.3900965281        3.9469569222       -2.7619738190
 H         1.2830818517        4.8166023073       -3.9022401427
 H        -1.5419031569        2.8255058656       -2.9350114435
 H        -0.6362588015        4.4281594572       -2.5060178845
 H        -1.2218606860        3.9773804627       -4.0487106439
 H         1.6586897138       -0.5400318477       -1.5666480386
 H         2.4701573721       -0.1790599808       -3.0800147611
 H         3.5791177233       -2.7813826635        2.0139300030
 H         3.3263799495       -1.0752704015        1.5190321290
 H         3.7311508350       -3.7709390126       -2.5842954018
 H         3.6430278634       -2.2578350021       -3.3726550162
 H         2.1845707830       -2.9915322263       -2.5881569729
 H         5.6296173058       -2.5433360073       -1.8198815674
 H         5.7104548048       -1.9762899553       -0.1752827443
 H         5.2783415623       -3.5884530782       -0.6546344000
 H         1.7330489105       -1.5554263763        3.3000155913
 H         1.3248129328       -3.0567494912        2.4990155339
 H        -2.4109822504       -0.7070053534        5.3552991080
 H        -1.1879544334       -1.9046766663        5.0660673566
 H        -1.7694852464       -1.2842282784        0.3253832498
 H        -1.8755921419        0.3285985464        1.0919422592
 H        -3.0111484795       -0.9446738381        1.5049726378
 H        -2.3697829802       -2.6157206763        3.2083522825
 H        -1.3957876420       -3.2845717205        1.8618654142
 H        -0.6303545783       -3.0983043095        3.3932506669
 H        -0.4319032543        0.8800466601        6.1494460367
 H        -0.7917502634       -0.7278716409        7.0136896431
 H         4.8104950347        0.9185892644        5.0328583442
 H         3.3786538575        0.3857563102        4.0770609048
 H         0.6512063007        1.3927875408        7.9567685215
 H         2.3432649747        1.2998446117        8.6610171506
 H         1.1435989931       -0.1198220055        8.5301306905
 H         3.5324193065       -1.2614586871        6.2341759535
 H         3.9607941206       -0.3463628139        7.8135029351
 H         2.7674288254       -1.6392941347        7.7877612006
 H         4.5268444438        2.3644930412        3.0595041323
 H         4.1860133395        3.3809737014        4.3997012240
 H        -0.1179041683        4.2769523338        3.5436851412
 H         0.5343718531        5.8242890064        3.1496846531
 H         2.3548287321        6.2968277692        3.4495058253
 H         4.0187107279        5.4364840271        3.6922336296
 H         2.8226357364        4.9883428899        4.6997388018
 H         3.6454640890        3.6888332458        0.6747118759
 H         3.9454497948        5.2497394230        1.0648503720
 H         4.6610820404        3.9952547138        2.0305444883
 H        -1.7156860975        6.1911303127        2.3948268790
 H        -0.8001487023        5.5768995021        0.9526222492
 H        -5.5854233686        6.3743937488        0.3158820225
 H        -4.6033583534        7.6460433215       -0.2923940116
 H        -5.0581295915        6.4336019212       -1.4977478585
 H        -4.4798052121        2.8263928581        1.8923008165
 H        -4.2905583399        3.1110865732        0.1607491213
 H        -5.5599917267        3.9447740505        1.0012805060
 H        -3.5078992919        6.4357671662        2.8930491149
 H        -5.1805876394        5.9263155757        2.2006539272
 H        -4.3305422382        4.7860812825        3.2262865312
 Na       -0.0652852406        1.8657738890        1.2623224640
