155

 C        -3.5311898481       -8.8973649184       -6.2540179922
 C        -4.7318126854       -8.0113793397       -6.3264813463
 C        -5.4530850502       -7.6415271499       -4.9955311211
 C        -4.5811788338       -6.6293267237       -4.1986538760
 C        -3.8190088367       -5.5053675498       -4.8898705386
 C        -6.6946726116       -6.8152551577       -5.3824060445
 C        -5.7288838837       -8.9484590341       -4.1353869161
 O        -5.1744098243       -7.5228475416       -7.3709232403
 O        -4.3736049892       -6.7314268972       -3.0309166908
 C        -3.6703447092       -4.3222635833       -3.9849118307
 C        -2.5772508145       -3.3582214477       -4.3770246367
 C        -2.8699626790       -1.7830418321       -4.3971085245
 C        -1.6032448651       -1.1922676982       -3.7543894135
 C        -0.5059456875       -0.6751366529       -4.6652639611
 O        -1.4914612877       -3.8060680444       -4.6815212706
 O        -1.5410133895       -0.9926719480       -2.5485411851
 C        -2.9705347973       -1.3321116632       -5.9575497288
 C        -4.1205083050       -1.3257550933       -3.7078219801
 C        -0.7020543040        0.8634890652       -4.8869835670
 C         0.4103317836        1.6930067759       -4.2496771139
 C         0.2373366472        2.8389746528       -3.2689776215
 C         0.5485433818        2.2817662102       -1.7758905900
 C         1.9982423726        1.8728719885       -1.4457527362
 C         1.3046770324        3.9801110435       -3.6529590615
 C        -1.1631909803        3.5042105924       -3.2353156610
 O         1.5626764958        1.2510812929       -4.4330841790
 O        -0.3602674662        2.3543848951       -0.9187295701
 C         2.1323360570        0.3288541815       -1.5233718846
 C         3.5189590500       -0.0585577914       -1.0067481797
 C         3.9625308202       -1.6767796040       -1.0858386354
 C         2.8300379758       -2.3118525088       -0.2849854259
 C         2.9822795419       -2.4417223588        1.2158307698
 O         4.3193274064        0.6959964214       -0.5360856730
 O         1.7482654619       -2.4569586710       -0.9084967614
 C         3.8148348026       -2.1003740885       -2.5637229764
 C         5.3910980601       -1.9014711481       -0.6428248615
 C         1.6126483496       -2.5332443781        1.8632322251
 C         0.6733745338       -1.2923554833        1.7264088828
 C        -0.8254639499       -1.4256231119        2.2496322569
 C        -1.0844822619       -0.3573919580        3.3113686030
 C        -1.4071755950       -0.8350382946        4.7031666481
 C        -1.7146708234       -0.8919038642        0.9649205934
 C        -1.1330702423       -2.8810212817        2.6933035135
 O         1.0389273114       -0.4069910710        1.0460798967
 O        -0.7928339811        0.8166624709        3.0990411666
 C        -0.7308197885       -0.0345990012        5.8735594290
 C         0.7485481765       -0.4694855004        6.1389152870
 C         1.6479797082        0.4878953853        7.0682360385
 C         2.4436063165        1.4325569792        6.0697619601
 C         3.4853871167        1.0398089433        5.0813493210
 O         1.0895324735       -1.6268799451        6.0039826761
 O         2.1343872289        2.6371864300        6.1540794707
 C         0.7413624566        1.3765918685        8.0125604176
 C         2.7220383690       -0.2960807029        8.0015492595
 C         3.9104262220        2.2394263991        4.2148736978
 C         2.6804905111        2.7114856382        3.3207214879
 C         2.5318282439        4.2211053410        3.1104884733
 C         1.3817641080        4.4082342947        2.1042878702
 C        -0.0574883791        4.6170911435        2.5851426212
 C         2.2820038267        4.9973311584        4.4357491390
 C         3.8205732249        4.6650229283        2.2832657700
 O         2.1266989124        1.8191205970        2.7122794564
 O         1.4991913771        3.9924265985        0.9694580413
 C        -0.9042359160        5.2361041365        1.4832569552
 C        -2.1431876534        4.2461392768        1.3150882649
 C        -3.5835508388        4.9512159144        1.1459265418
 C        -3.4665635238        6.2768699691        0.2476114178
 C        -4.6160939509        7.3148664343        0.4250942759
 O        -2.0325426964        3.0507176126        1.2599491544
 O        -2.6769981496        6.2776319392       -0.6596558346
 C        -4.5150145917        4.0411843252        0.3476446376
 C        -4.0224070048        5.0451001637        2.7424617248
 H        -3.4698348009       -9.5132647529       -7.1862485746
 H        -2.7562191036       -8.2090964947       -6.4657362906
 H        -3.4231150142       -9.4792254259       -5.3787852029
 H        -2.8893552601       -5.9399289957       -5.1444259747
 H        -4.2799116219       -5.2860670367       -5.8160863309
 H        -7.2680122672       -6.5019932685       -4.5033158384
 H        -7.4021054554       -7.2875616605       -6.1186455726
 H        -6.3806254784       -5.9540234704       -5.9307171820
 H        -6.2017838334       -8.6526011703       -3.1928454570
 H        -6.3830226738       -9.6716193887       -4.5908359803
 H        -4.8250830034       -9.5498857085       -4.0013080651
 H        -4.5545964529       -3.8060438887       -3.8694080463
 H        -3.4262416067       -4.6430832552       -2.9369155970
 H         0.4719258456       -0.7831000341       -4.1800840970
 H        -0.4136654650       -1.0210217867       -5.7060323096
 H        -3.9407007835       -1.3505925631       -6.3850093497
 H        -2.3920556994       -2.0729343344       -6.4602945476
 H        -2.4933856182       -0.3196036980       -6.0424679083
 H        -4.2237868007       -0.2370480833       -3.9043872139
 H        -4.9810386464       -1.8635183454       -4.0623289071
 H        -4.1225337184       -1.4207572569       -2.6049122831
 H        -1.5383122597        1.1253276023       -4.3182261231
 H        -0.8350794325        1.0745386146       -5.8960278413
 H         2.6845236165        2.4287552848       -2.0372582516
 H         2.2982493701        2.3022233325       -0.3946904000
 H         0.9735397489        4.8890115430       -3.4074580805
 H         1.5020609325        3.9312194462       -4.7014635718
 H         2.2415203420        3.8246384254       -3.0841722083
 H        -2.0186119822        2.8511903195       -3.3493495610
 H        -1.4050239022        3.9292906519       -2.2452997006
 H        -1.1426203690        4.1968559689       -4.0090960594
 H         1.2379631794       -0.2155371775       -1.2382985179
 H         2.1867595609        0.0173927943       -2.6311025989
 H         3.4281268444       -3.4265081816        1.2978913054
 H         3.7144808593       -1.7468323159        1.7091934465
 H         4.6033314268       -2.7822444054       -2.8481123746
 H         3.9122492600       -1.2202224740       -3.2614035148
 H         2.9014672546       -2.6086111408       -2.8314997014
 H         5.9971028373       -1.3460973532       -1.3774597206
 H         5.7309700726       -1.4943263219        0.3334953480
 H         5.5541945384       -3.0297387873       -0.6502244424
 H         1.7448156457       -2.6874178838        2.9960970780
 H         1.2072253404       -3.4433242614        1.4696659494
 H        -2.5204455261       -0.8665039540        4.8078237908
 H        -1.2327148098       -1.8463535167        4.9415721068
 H        -1.3912005016       -1.3364178758        0.0172988095
 H        -1.5415862080        0.1986320613        0.7955098874
 H        -2.7999303067       -1.0872241508        1.1336228584
 H        -2.1129408250       -3.0368774468        3.2018688617
 H        -1.1946606418       -3.4644697890        1.7636451568
 H        -0.2893791759       -3.2223167945        3.2846629836
 H        -0.7169693923        1.0983901688        5.6544294720
 H        -1.3895484678       -0.1894299577        6.7005243212
 H         4.3421792871        0.6897792299        5.6369076537
 H         2.9960678173        0.3058354587        4.5004064204
 H         0.2042744987        2.0575278450        7.4327629819
 H         1.3478486872        1.8265011758        8.7957890844
 H         0.2222726318        0.6340867477        8.6398582850
 H         3.2783770363       -0.8882050364        7.2754481928
 H         3.4441894304        0.3710251555        8.4555795318
 H         2.2962347401       -0.9778688923        8.7000383251
 H         4.8437290474        2.1759014421        3.6031783761
 H         4.1592133015        2.9943442874        4.9822418455
 H        -0.4731797323        3.6613766850        2.8376765320
 H        -0.0601697211        5.2467311575        3.5127936090
 H         2.2888101860        6.0009860108        4.1570312005
 H         3.1690866802        4.8937931425        4.9961355016
 H         1.3481444629        4.7194241342        4.8656375774
 H         3.9850759258        3.8367048437        1.5092147995
 H         4.0189784205        5.6871952814        2.0546550140
 H         4.6888927580        4.4833330607        2.9425558378
 H        -1.3075549303        6.2806453337        1.6753426156
 H        -0.3219415892        5.2744442458        0.5440463900
 H        -4.6583235882        7.9781878637        1.2776621149
 H        -4.5561500670        7.9391222446       -0.4762259596
 H        -5.5193283929        6.7600304295        0.7034427324
 H        -5.6033040332        4.1893599833        0.5415031934
 H        -4.2149755845        3.0759819232        0.6284282816
 H        -4.3430232283        4.1782494299       -0.7628860997
 H        -3.4317572817        5.7658464252        3.2426480326
 H        -5.0327374470        5.3179827868        2.7455789877
 H        -3.8528686897        4.0323925682        3.2113117978
 Na        0.1210473763        1.6596487254        1.2270475382
