155

 C        -2.9866224865       -8.6150461450       -6.9705139197
 C        -4.4907578300       -8.4200833133       -6.6738525858
 C        -4.8560362698       -7.9460502146       -5.2232327841
 C        -3.8725977159       -6.8982682908       -4.5995307958
 C        -3.3723188769       -5.6534560377       -5.3716854033
 C        -6.3170672307       -7.3012972529       -5.1455482589
 C        -4.9237638454       -9.1861299978       -4.3691628604
 O        -5.2952760265       -8.8170520885       -7.5051090495
 O        -3.5860762595       -7.0069484169       -3.4142090264
 C        -3.7830857393       -4.4261665603       -4.5796361116
 C        -2.6349530528       -3.4012680994       -4.7318442532
 C        -3.1569544481       -1.9460681679       -4.5784234928
 C        -2.0106898723       -1.0514217680       -3.9041412408
 C        -0.7295667936       -0.6878574247       -4.7476792915
 O        -1.4419865935       -3.6062133146       -4.9420414222
 O        -2.1261441225       -0.7564401309       -2.7224439372
 C        -3.2955086034       -1.6135739782       -6.0854896047
 C        -4.4474116460       -1.6058911275       -3.9259424636
 C        -0.7348768645        0.7973601154       -5.1866163834
 C         0.3680128286        1.6254563426       -4.4878952962
 C         0.0509810683        2.6901352687       -3.2687943731
 C         0.5340999510        2.1205257280       -1.9117782066
 C         2.0306456272        1.7956345667       -1.8649744535
 C         1.0702838331        3.9336122388       -3.5290228321
 C        -1.3904839674        3.0407945340       -3.2952245621
 O         1.5518471472        1.4877926208       -4.6801442087
 O        -0.2646530602        2.1762455491       -0.9590371541
 C         2.2719768230        0.3039519943       -1.6101761539
 C         3.5657160209        0.1283864920       -0.8139897614
 C         4.4843642798       -1.2098076424       -1.0021906736
 C         3.2934473196       -2.2441741164       -0.5775325182
 C         2.9772319742       -2.3285959290        0.9180124337
 O         3.8826356165        1.0023463396       -0.0747138453
 O         2.5351203331       -2.6907686691       -1.4352345170
 C         4.6547619435       -1.3935849266       -2.5204817763
 C         5.6780608864       -1.2354873530        0.0366336642
 C         1.5472901212       -2.5627968875        1.2878669315
 C         0.5218891283       -1.4077827068        1.3488032460
 C        -1.0485935473       -1.6387187941        1.8738967356
 C        -0.9675096430       -0.6430043228        3.2334128126
 C        -1.5489769990       -1.2603047217        4.5516373326
 C        -2.1545308921       -1.3334094747        0.8821851711
 C        -1.2665918282       -3.1204204120        2.3899183659
 O         0.8549752598       -0.2382308113        1.2117748923
 O        -0.6679226422        0.5121178547        3.1539149390
 C        -1.1690803881       -0.4274921233        5.7833691869
 C         0.3219525859       -0.5972233364        6.2440640112
 C         0.8791928608        0.2887794071        7.3651094017
 C         1.5294370993        1.7039457685        6.8658698728
 C         2.8963647094        1.5925313877        6.0967381162
 O         1.0771737657       -1.3795549462        5.6605191129
 O         0.9261310197        2.7931731947        6.8723307053
 C        -0.1579795251        0.8882367321        8.4465589271
 C         1.9889065443       -0.4942852311        8.0417130985
 C         3.3167595562        2.7744717539        5.2606777809
 C         2.5018622994        3.0471566458        3.9669714730
 C         2.7464613752        4.4089181237        3.2224650331
 C         1.5335999358        4.4855776929        2.1207351000
 C         0.3914518172        5.4523237683        2.5041524614
 C         2.7984775501        5.5926522812        4.1605964711
 C         4.1115703318        4.4396072209        2.5422336329
 O         1.6603489268        2.2379098731        3.6547063636
 O         1.6135813430        3.9191161438        1.0229030656
 C        -0.7590087313        5.6923842538        1.5835561821
 C        -1.8070366624        4.5435166857        1.3951421836
 C        -3.2754104203        4.9914463056        1.2793490144
 C        -3.4245951166        6.1067899750        0.2706938103
 C        -4.5421645242        7.1318508839        0.6407752276
 O        -1.4854933193        3.3614678485        1.5097856765
 O        -2.6345377897        6.3027734000       -0.5886508886
 C        -4.1386728515        3.8748561237        0.6274092584
 C        -3.8473602594        5.1896656535        2.7413042892
 H        -2.8323299259       -9.5180712747       -7.5598381944
 H        -2.4843189541       -7.7638439595       -7.3981447255
 H        -2.4916930713       -8.8025927021       -6.0430616141
 H        -2.2894283672       -5.6533586163       -5.3082744953
 H        -3.7074963485       -5.5551045926       -6.3062110899
 H        -6.5153714745       -6.8887829362       -4.1518723607
 H        -7.0103130357       -8.1285507008       -5.3225270319
 H        -6.4264697103       -6.5168321284       -5.8494802253
 H        -5.2787335266       -8.9020374830       -3.3259028986
 H        -5.5787474527       -9.9066289687       -4.8136140956
 H        -3.9490419235       -9.6658079918       -4.1194554183
 H        -4.6813489836       -3.8731292163       -4.9416896993
 H        -3.8576457140       -4.6837165447       -3.5519117903
 H         0.0733131191       -0.8792234226       -4.1434514532
 H        -0.5893493094       -1.3924737266       -5.5965682407
 H        -3.8968828960       -2.3515732265       -6.6110794985
 H        -2.3620198720       -1.5597075310       -6.5407286500
 H        -3.8199020614       -0.6432075085       -6.1923500642
 H        -4.5456792363       -0.5071377321       -3.6409133792
 H        -5.2690401951       -1.8014879237       -4.5958352249
 H        -4.8738936196       -2.0993363866       -3.0202598490
 H        -1.6839452200        1.2078932458       -5.2441681693
 H        -0.5059963813        0.7058869613       -6.2586016048
 H         2.5007105166        1.9174868133       -2.8439734795
 H         2.5450316060        2.2639660216       -1.0362633765
 H         0.6461238651        4.7214904139       -3.9829862745
 H         1.8033564488        3.5449501098       -4.2330402760
 H         1.7140600553        4.2555887382       -2.7120008146
 H        -1.9043707409        2.3909732562       -2.6288971805
 H        -1.4989083440        4.1332046088       -3.2322087796
 H        -1.7719642689        2.8655595536       -4.2463748371
 H         1.3502412430       -0.2154980813       -1.0966796121
 H         2.2893020522       -0.1586161490       -2.6004184525
 H         3.6362376849       -3.1272047097        1.2768654477
 H         3.3387113444       -1.3855968659        1.3824086769
 H         5.6822797729       -1.7513493035       -2.8433344086
 H         4.4195791580       -0.5302305233       -3.1809341223
 H         4.0268343571       -2.2169007996       -2.8195667232
 H         6.2585304336       -0.3677377594       -0.1790052455
 H         5.3028265626       -0.9897472320        1.0313768322
 H         6.2940634407       -2.1826332880        0.0594139598
 H         1.4282852433       -3.0470892960        2.2580053774
 H         1.1308124909       -3.2661016640        0.5006355105
 H        -2.5784561799       -0.9918684869        4.4595965296
 H        -1.4285902551       -2.3232501183        4.7557183016
 H        -2.3298511788       -2.1656791016        0.2163666354
 H        -1.9227770980       -0.5129045767        0.2397602461
 H        -3.1620125280       -1.0444772022        1.2722815727
 H        -2.3711504417       -3.2053867117        2.7125154149
 H        -1.0898499538       -3.8222214003        1.6207424563
 H        -0.6570429805       -3.4819744631        3.2209670821
 H        -1.3947556704        0.6356106271        5.5215881454
 H        -1.8165274354       -0.5936391323        6.6439291434
 H         3.6110795108        1.3619628755        6.8684507133
 H         2.9512462761        0.6433001514        5.4364624043
 H        -0.8863142584        1.4163083056        7.8487351744
 H         0.4026309097        1.5715148125        9.1307840302
 H        -0.7116952353        0.1466642276        8.9688632401
 H         2.7006916868       -0.9184246835        7.3568866363
 H         2.5942196917        0.1606913246        8.6870246193
 H         1.6869770047       -1.3436225986        8.6204047483
 H         4.3652440150        2.4746521990        4.9861707931
 H         3.4409991780        3.7005171070        5.8376032289
 H         0.0946777584        5.0073535617        3.5106094068
 H         0.8296207480        6.3864659568        2.6194506890
 H         2.8324421782        6.4790265013        3.5412448888
 H         3.7641061498        5.3906457837        4.5941462332
 H         2.0737983657        5.4816776105        4.9539609510
 H         4.0750689281        3.9563678683        1.5197661999
 H         4.4608202590        5.4124592050        2.1956437578
 H         4.8512793865        3.8982950611        3.2039744615
 H        -1.2562064894        6.6808882329        1.7528879542
 H        -0.2872024555        5.8442525564        0.5790133132
 H        -4.2950720264        7.5358382309        1.6086397056
 H        -4.5257273469        7.9732215647       -0.0196523743
 H        -5.5922331359        6.8752641703        0.4452080701
 H        -3.5339615907        3.0206544527        0.2351655548
 H        -4.7390292310        4.1809959343       -0.1829772626
 H        -4.7964212062        3.4831761948        1.3629442611
 H        -3.6030380562        6.1952781671        3.0977188877
 H        -4.9074972088        5.0940806434        2.8762515231
 H        -3.3142613811        4.5428515040        3.3894665053
 Na        0.3967892755        2.1225116346        1.5925668449
