155

 C        -2.8154150887       -8.5844357309       -6.9754415164
 C        -4.2746887203       -8.4284430193       -6.6523727224
 C        -4.7705219877       -8.0024500133       -5.1974604728
 C        -3.7854165450       -6.9662845623       -4.6288981896
 C        -3.4036094957       -5.7118985871       -5.3945780717
 C        -6.1316482560       -7.3093781175       -5.4342828589
 C        -4.7660871193       -9.3104572715       -4.1909472096
 O        -5.1577600310       -8.6883013547       -7.4316604949
 O        -3.2994242621       -7.1140395272       -3.4922944942
 C        -3.6522509706       -4.4624978808       -4.5272709661
 C        -2.6750164435       -3.3082674577       -4.9241718332
 C        -3.2128636510       -1.8225865958       -4.8011359140
 C        -2.1068336914       -1.0709223710       -3.9757630195
 C        -0.7833888951       -0.7121186428       -4.5753017783
 O        -1.4703553852       -3.4291329076       -5.0787401159
 O        -2.2680106809       -0.8357472824       -2.7854801686
 C        -3.4362449579       -1.2249008466       -6.1749785882
 C        -4.4763041096       -1.7905189447       -3.9141367030
 C        -0.7246509264        0.7729440454       -5.0754721126
 C         0.3768536716        1.5034071968       -4.3243421058
 C        -0.0247111563        2.5903496206       -3.1891203846
 C         0.4920637529        2.0117222260       -1.8184551485
 C         1.9685528981        1.8656691334       -1.6735357349
 C         0.7265371713        3.8756917040       -3.5714170879
 C        -1.5242359745        3.0363622714       -3.0254534581
 O         1.5258397570        1.1857560478       -4.5049693442
 O        -0.3056495265        1.7830058651       -0.9382932174
 C         2.3758808917        0.3792527092       -1.7462666921
 C         3.6307243440        0.2733394825       -0.8959104769
 C         4.3904204484       -1.1472168681       -0.9622994265
 C         3.2137541799       -2.1335667188       -0.4787194158
 C         2.8524431244       -2.2163218052        1.0695143190
 O         4.0729947703        1.2199043819       -0.2102725752
 O         2.6448656817       -2.8474819314       -1.2448051476
 C         4.9627517953       -1.3804787251       -2.4304587240
 C         5.5912907627       -1.0554361287        0.0371598995
 C         1.4153233866       -2.6757372057        1.2294280999
 C         0.5462712045       -1.4487369482        1.3618428101
 C        -0.8996365376       -1.6231637686        1.9234910078
 C        -0.9078006524       -0.7270380217        3.2243216056
 C        -1.6696277588       -1.2600061355        4.4651504696
 C        -1.7487328090       -0.8916144522        0.8158179343
 C        -1.2235727293       -3.1565741906        2.0179560300
 O         0.9709764801       -0.4371264882        0.9111446262
 O        -0.5490798742        0.4443251931        3.2997868872
 C        -1.3504781732       -0.3342039400        5.6855733375
 C         0.0512871185       -0.5568291779        6.1712650832
 C         0.7678898387        0.3481656676        7.3097114920
 C         1.4060673849        1.7029405869        6.7595137859
 C         2.7170027398        1.7119141236        5.9773586894
 O         0.7220782698       -1.4671554522        5.7714386990
 O         0.8308698742        2.7276241684        6.8483392836
 C        -0.3320564479        0.6621189067        8.3749165494
 C         1.9116264533       -0.4606529343        8.0217751887
 C         2.9792712466        3.1387722564        5.3912076134
 C         2.4411049719        3.2060810418        4.0264131421
 C         2.7223699974        4.4525656232        3.1991594541
 C         1.5868652067        4.7266238119        2.2065619015
 C         0.3823874819        5.6095777182        2.6568897024
 C         2.8996183177        5.6832365451        4.1828473676
 C         4.0434877029        4.0676184204        2.4199288607
 O         1.7969432351        2.3232977197        3.5096853933
 O         1.6383858245        4.1246448903        1.1844631584
 C        -0.6569392683        5.6327938588        1.4960032546
 C        -1.7127684414        4.5127216896        1.4934968748
 C        -3.2519666188        5.0257029253        1.4171476214
 C        -3.4196605839        6.1084420909        0.3454371764
 C        -4.5558389027        7.1192167080        0.3263816413
 O        -1.4566272574        3.3530390008        1.6367172890
 O        -2.4950744201        6.1479893377       -0.4668264889
 C        -4.0319686111        3.8068379548        0.8627389303
 C        -3.7591804291        5.3159712599        2.8007750858
 H        -2.8103926910       -9.4532834564       -7.5953216723
 H        -2.5254359595       -7.7386780318       -7.6296423610
 H        -2.0563055201       -8.6981993520       -6.1559656537
 H        -2.3210685639       -5.7132552050       -5.6646833084
 H        -4.0656783430       -5.6136839819       -6.3771774676
 H        -6.5349409901       -6.8304731152       -4.4956485162
 H        -6.8575112809       -8.0159074893       -5.8755812655
 H        -5.9071955092       -6.4627592575       -6.1774940162
 H        -4.7801297077       -9.0739865083       -3.1650876034
 H        -5.5535797875      -10.0490175106       -4.4536715007
 H        -3.8530458614       -9.8644980739       -4.3560034324
 H        -4.6337335900       -4.0532595536       -4.5239926894
 H        -3.2592912171       -4.8053866714       -3.5326873344
 H         0.0050308761       -0.8114874817       -3.7233112161
 H        -0.6669906266       -1.4879380058       -5.3218392934
 H        -3.9048133468       -1.9759613637       -6.8098884879
 H        -2.5273157095       -0.9040926344       -6.7573123971
 H        -4.1271764602       -0.4422003126       -6.0512095712
 H        -4.7111549097       -0.8186823993       -3.6666552435
 H        -5.3893405140       -2.2639805545       -4.2452580350
 H        -4.4019069368       -2.2519452354       -2.9837907238
 H        -1.7403612634        1.2780377998       -4.8266698901
 H        -0.6899642047        0.7901524347       -6.1724947965
 H         2.5348415092        2.4081607801       -2.4447140196
 H         2.1349403024        2.1943326919       -0.6301337538
 H        -0.1432139554        4.6130037270       -3.8952645156
 H         1.3738983443        3.8935344335       -4.4687793038
 H         1.3488674502        4.3536859890       -2.8157383625
 H        -2.1759091047        2.1577619025       -2.8597848267
 H        -1.5427492791        3.7705892254       -2.2475788888
 H        -1.7935710972        3.5691715518       -3.9947150829
 H         1.5451201251       -0.1185106186       -1.3404091521
 H         2.4989229396        0.0370341155       -2.7988887229
 H         3.5487657869       -2.9505564510        1.5343126078
 H         3.0022749118       -1.2383497373        1.5126303653
 H         5.7640515663       -2.0737692384       -2.3825219641
 H         5.2635012675       -0.4120725524       -2.7952476316
 H         4.3606547703       -1.8855272242       -3.2098850159
 H         6.3723228255       -0.2894362874       -0.2960885987
 H         5.3348688099       -0.7213244175        1.0740979542
 H         5.9856807290       -2.0661760948        0.1293253984
 H         1.2244099303       -3.2434210821        2.1620352567
 H         1.1588743656       -3.3038291237        0.3832740815
 H        -2.7653457561       -1.2005814810        4.3522177551
 H        -1.3095263860       -2.2604633467        4.6993013292
 H        -1.6842977720       -1.2795674648       -0.2334388512
 H        -1.6375014797        0.2155542417        0.7852641012
 H        -2.8125671716       -0.9748229175        1.0659128168
 H        -2.2312458140       -3.2969617857        2.2604866091
 H        -0.9557404351       -3.7722909188        1.0966015710
 H        -0.6265834285       -3.6382002296        2.8137502508
 H        -1.5071835656        0.6573308999        5.3347548383
 H        -1.9685302257       -0.4399223906        6.6120346219
 H         3.5078083472        1.2193362484        6.6279039179
 H         2.6047857471        1.0204125584        5.1707748546
 H        -1.1991674319        1.2285835811        7.9405486653
 H         0.1870620636        1.2591620222        9.1205012429
 H        -0.7134050228       -0.2266797455        8.9132485895
 H         2.8032976158       -0.5971880289        7.4172583590
 H         2.3494544971        0.1272102860        8.8057692613
 H         1.6910735033       -1.4721122793        8.3945016036
 H         4.0123876651        3.3569988440        5.5666102766
 H         2.3602073238        3.9677140331        5.8125295045
 H        -0.0737414531        5.2596144179        3.5543257650
 H         0.8417207775        6.6517935525        2.8729601231
 H         3.0869392089        6.5151704177        3.5155146416
 H         3.8204912362        5.5915351380        4.7448078796
 H         1.9656136481        5.7366779093        4.7059054058
 H         3.8398567800        3.4411104298        1.6026137914
 H         4.4935145228        4.9440423143        1.8595785151
 H         4.8032611734        3.6604783726        3.0788661753
 H        -1.2912743280        6.5169470694        1.5616678903
 H        -0.1939632418        5.6761187846        0.5098645240
 H        -4.6232125805        7.6588682164        1.2983837827
 H        -4.4433648317        7.9166176384       -0.4288573976
 H        -5.4523603611        6.6931538258       -0.1276669331
 H        -3.3706246504        3.0568779542        0.4972311970
 H        -4.5342499143        4.1151020509       -0.1212135897
 H        -4.8554301618        3.3522575223        1.4403215016
 H        -3.0643593921        5.9095624545        3.4063366612
 H        -4.6439260886        5.9873808710        2.7938977853
 H        -3.9033560694        4.4168581316        3.4012938164
 Na        0.3355176193        1.8074850943        1.4748040380
