155

 C        -2.0889087692       -9.4102969680       -6.7514171526
 C        -3.3297265020       -8.4711899423       -6.7245589091
 C        -3.9516029602       -8.0598329942       -5.3675406450
 C        -2.9067177711       -6.9331856952       -4.7615195234
 C        -2.6550415469       -5.5981029044       -5.5815878784
 C        -5.3589963515       -7.3525239448       -5.4628618489
 C        -4.1113024868       -9.1637676943       -4.3019514787
 O        -3.8658868585       -7.9281793348       -7.7105625730
 O        -2.4392718059       -6.9066574743       -3.6190800505
 C        -3.3030760604       -4.4846603620       -4.8012742606
 C        -3.2396734689       -3.1295138882       -5.5310260431
 C        -3.6679094936       -1.8172861626       -4.8246345258
 C        -2.4329960117       -1.3640886784       -3.9942838181
 C        -1.0945965325       -0.8552264700       -4.6425656688
 O        -2.7493465857       -3.1545009450       -6.6525484431
 O        -2.5818825331       -1.2906822706       -2.7763241211
 C        -4.0843325114       -0.6884359218       -5.8458192002
 C        -4.7798298697       -2.0244985960       -3.8298971053
 C        -1.0428213066        0.7059823632       -4.9878181480
 C         0.0518815831        1.2042938685       -4.0430270774
 C        -0.3452543498        2.2887088517       -2.9099158772
 C         0.6443394220        2.2965224260       -1.6898664726
 C         2.1518935737        2.1674745932       -1.8142089032
 C        -0.2443209142        3.5552092237       -3.7846228115
 C        -1.7474974040        2.0697155685       -2.4270760013
 O         1.1942825881        0.8680808479       -4.2218249084
 O         0.1943880992        2.2778703943       -0.5293704597
 C         2.8393844557        0.6882309684       -1.8084051292
 C         3.9312573570        0.5247312395       -0.7202364664
 C         4.6615366313       -0.9114363254       -0.6433154381
 C         3.4220471117       -1.7926634335       -0.1270407516
 C         3.2900304476       -2.1345851267        1.4503314189
 O         4.3214701132        1.4298044442        0.0266954838
 O         2.5467157994       -2.1545506211       -0.8694614594
 C         5.0757192082       -1.2836801234       -2.1204981577
 C         5.8165276592       -0.8152275028        0.4314316837
 C         1.7460183607       -2.4142905030        1.7726088932
 C         0.8200864436       -1.1566091249        1.5530483767
 C        -0.7696360176       -1.3115052337        1.5509498750
 C        -1.3167472887       -0.6692816343        2.8686245499
 C        -1.8706647654       -1.6577723089        4.0587692934
 C        -1.1762303445       -0.4927483895        0.3710393696
 C        -1.3486232118       -2.7299151673        1.3859957733
 O         1.2611036406       -0.0381040598        1.3922676410
 O        -1.3571040658        0.5001229342        3.1099315834
 C        -1.8312182904       -1.0142419521        5.4166587357
 C        -0.3060152321       -0.7450814962        5.8784341024
 C        -0.0367006372        0.1856145196        7.1501466108
 C         0.3732407155        1.5991305725        6.5867031235
 C         1.8550937746        2.1248906474        6.4902393516
 O         0.5994359086       -1.3355104130        5.3571559100
 O        -0.4945082333        2.2561449261        6.1507723512
 C        -1.1913457353        0.1761848975        8.1061489730
 C         1.1704333707       -0.3399804228        7.9400427556
 C         1.9445220452        3.4176129278        5.6371093710
 C         2.3319458845        3.0303627805        4.1917073152
 C         2.9291716409        4.1622063080        3.0967142620
 C         1.8217019525        4.6325906382        2.1971146553
 C         0.7069511508        5.5424807668        2.8399289454
 C         3.5716060745        5.3825795966        3.8570266366
 C         4.0331414933        3.7028667876        2.1688338733
 O         2.0652407801        2.0074630527        3.6241237110
 O         1.7746285351        4.3808208020        0.9914633821
 C        -0.4767071735        5.8418297883        1.8563090591
 C        -1.5467037837        4.7250540846        1.9767670650
 C        -3.0234130385        5.0613492902        1.6443774834
 C        -3.2420191678        5.4324285009        0.1264359119
 C        -4.6964831761        5.6090766055       -0.2562037947
 O        -1.2576959338        3.6079745662        2.2608593256
 O        -2.3425819832        5.5378739258       -0.7059858780
 C        -4.0381465112        3.8776504027        2.0081421560
 C        -3.4705409018        6.2272314176        2.5071680437
 H        -2.0357044768       -9.6966298739       -7.8018402489
 H        -1.1750542687       -8.8865124846       -6.4884580313
 H        -2.1949326390      -10.2995192961       -6.0925782934
 H        -1.5442147497       -5.4316888582       -5.6109262196
 H        -3.0367179802       -5.6863286718       -6.6619233632
 H        -5.5881656653       -7.0240642117       -4.4164950590
 H        -6.0377086601       -8.1594143593       -5.8484815170
 H        -5.2130116105       -6.4896740475       -6.1363238196
 H        -4.5960507156       -8.8356369120       -3.3930396292
 H        -4.6853920868      -10.0402183259       -4.6756824175
 H        -3.0884961351       -9.3843536426       -3.9914262383
 H        -4.3541165353       -4.8499356091       -4.5963704388
 H        -2.9264497590       -4.4362326225       -3.7700238884
 H        -0.2086655983       -1.2369973687       -3.9704840519
 H        -0.8548168142       -1.3739903349       -5.6146854310
 H        -5.1227681455       -0.7749046091       -5.9426264433
 H        -3.5938919963       -0.6878615764       -6.8152719818
 H        -3.9423205878        0.3241207027       -5.4373965096
 H        -5.1487391483       -1.1310231337       -3.3738591484
 H        -5.6983794194       -2.3875013074       -4.2980817036
 H        -4.5255856076       -2.6170859741       -2.9929754156
 H        -1.9989824324        1.2333159124       -4.8163585297
 H        -0.7785392472        0.7764716375       -6.0835998078
 H         2.5320170098        2.6728146739       -2.6924375988
 H         2.6648221664        2.7024662229       -0.9533249543
 H        -0.7881310266        3.5755688632       -4.8389479416
 H         0.7413720759        3.9772867588       -3.9907636081
 H        -0.8512572697        4.3364082181       -3.3112981755
 H        -1.7108449525        1.2179259086       -1.7502127309
 H        -2.1598093013        2.9168413245       -1.8857063848
 H        -2.4621921761        1.9776062630       -3.2770819385
 H         2.0219980728        0.0417768677       -1.6740186898
 H         3.3671928307        0.7351448670       -2.7654527604
 H         3.7850980121       -3.0857546350        1.4694077217
 H         3.7255629022       -1.4590134427        2.2419514434
 H         5.7616839922       -2.0880299180       -2.0888403555
 H         5.7549756109       -0.4795206204       -2.5160697815
 H         4.1691257057       -1.3962235560       -2.7406934988
 H         6.8135425281       -0.5248456313       -0.0333910584
 H         5.4855395885       -0.1256912523        1.2478496936
 H         6.0458427034       -1.8250139777        0.8057921379
 H         1.5494319030       -2.5869892792        2.8367664954
 H         1.2976282219       -3.2917286178        1.3872242658
 H        -2.8664631028       -2.1199680109        3.7986781606
 H        -1.1954742060       -2.5223713283        4.1068744839
 H        -0.6133985167       -0.7592150194       -0.5334413155
 H        -1.0515384326        0.6222764738        0.3522578280
 H        -2.2315788213       -0.6413776228        0.1097471265
 H        -2.4268349955       -2.7956764712        1.3445169012
 H        -0.8598648610       -3.2475827291        0.5089536673
 H        -1.0362098842       -3.3359117199        2.2430284417
 H        -2.4006473671        0.0197005532        5.3739180760
 H        -2.2301561664       -1.6394570689        6.1881737915
 H         2.3209631424        2.4186952880        7.4167811602
 H         2.3595659511        1.2900513999        6.0674046485
 H        -2.1471551331        0.4941302232        7.7860170018
 H        -0.8283071621        0.8275244073        8.9066634401
 H        -1.3359309683       -0.8173978635        8.6458278889
 H         1.9983186210       -0.4970314655        7.2289280788
 H         1.5270653075        0.2429671352        8.7494682247
 H         1.0818959352       -1.2987054383        8.3687665890
 H         2.8410900023        3.9254945407        6.0591783064
 H         1.0833589850        4.0700512088        5.8209693450
 H         0.2942983903        5.0581511337        3.8283493557
 H         1.1451022224        6.4654855151        3.1607549413
 H         3.6695111971        6.1985982375        3.1829531594
 H         4.4034882814        5.0908844250        4.4869545290
 H         2.8189057255        5.7181630046        4.5471809802
 H         3.8591508549        2.7338699413        1.7150355628
 H         4.2782919657        4.4003115472        1.3414389973
 H         4.8926519588        3.4094390809        2.7345738984
 H        -0.9397184395        6.7889561145        2.1839590550
 H        -0.1243640773        5.9073450776        0.8441109123
 H        -4.7435021649        6.1329532969       -1.2286739205
 H        -5.3233998161        4.6931398239       -0.5178312830
 H        -5.0981697149        6.3720953834        0.3972268743
 H        -4.6706620882        4.3288699635        2.7441988443
 H        -3.4649748500        3.0734000968        2.3955690455
 H        -4.7856080577        3.4450306520        1.3023762967
 H        -2.7673560699        7.0056908507        2.3725298137
 H        -4.4013861404        6.6692777397        2.2245312971
 H        -3.6143332724        5.9694460642        3.5940190672
 Na        0.5249392884        2.0248037902        1.7919888992
