155

 C        -2.0380068728       -9.8685196479       -6.7588841197
 C        -2.4664443859       -8.4185821826       -6.7024535350
 C        -3.2058321442       -7.9436025071       -5.3918228387
 C        -2.4037836388       -6.6384426979       -4.9568272157
 C        -2.6106301118       -5.2900874273       -5.7152673604
 C        -4.7250583383       -7.7730478819       -5.8164013299
 C        -3.2274809787       -9.0200504588       -4.2022741067
 O        -2.2317816415       -7.7183954918       -7.6134740051
 O        -1.6671660785       -6.6843566534       -3.9856649761
 C        -3.6415744014       -4.4925093560       -4.9239650005
 C        -3.6706170335       -3.0920795829       -5.6778289623
 C        -3.9369127665       -1.7049181020       -4.8628396266
 C        -2.4438015217       -1.1934659168       -4.5001303247
 C        -1.4080777767       -0.7256806414       -5.5676862994
 O        -3.4874298674       -2.9574014888       -6.8485618906
 O        -2.1692653788       -1.2411332857       -3.3194624663
 C        -4.5985097873       -0.5044101270       -5.6750490427
 C        -4.7306583560       -1.8267162743       -3.5442092292
 C        -1.1266190637        0.7762758258       -5.2702029979
 C        -0.1809066619        0.8868322182       -3.8860046572
 C        -0.4080737905        2.1651405584       -3.0267698633
 C         0.3803832180        2.1753883206       -1.6538531609
 C         1.9279202938        2.4248084436       -1.5667434854
 C         0.0407451620        3.2707822081       -3.9400520969
 C        -1.8919287948        2.4851736885       -2.6853443562
 O         0.7639970741        0.1613802023       -3.7260919397
 O        -0.2369751133        1.9547759977       -0.6465684489
 C         2.8256493975        1.0693343865       -1.6706129140
 C         3.9815450260        0.8501278281       -0.6108992219
 C         4.6512464164       -0.6722221389       -0.6237003427
 C         3.4878516623       -1.5947527277       -0.0073725248
 C         3.4444114912       -1.8538248159        1.4874190609
 O         4.2568453126        1.6519873031        0.2252649142
 O         2.5031140083       -1.8249918843       -0.7078661225
 C         4.9475896478       -1.2711421760       -2.0257234927
 C         5.9060024993       -0.6663814982        0.2169051405
 C         2.1232247177       -2.4493476563        1.8554372396
 C         1.0606390624       -1.3073134091        1.6325883685
 C        -0.4162631250       -1.7093394832        1.5552375351
 C        -1.2548493783       -0.7962010439        2.5953401360
 C        -2.1338710276       -1.3562309764        3.7030493488
 C        -1.0211482205       -1.3267303400        0.1865540903
 C        -0.6418319041       -3.2165758300        1.8833713198
 O         1.4153667666       -0.1633752262        1.4320657404
 O        -1.3908073366        0.4205022444        2.3679951776
 C        -2.0881379561       -0.5321276038        4.9590411120
 C        -0.7000746913       -0.5563439113        5.6227184494
 C        -0.5018287201        0.1564959031        6.9796190399
 C         0.1556285978        1.5870887139        6.6643479371
 C         1.7126426083        1.7719754419        6.7801443119
 O         0.2663956630       -1.0327681151        5.0266323673
 O        -0.6252287274        2.4943531124        6.3988286720
 C        -1.7373425256        0.4488877776        7.8850070615
 C         0.5302080978       -0.7167797479        7.8080078397
 C         2.2008363977        3.0650702736        6.0591890634
 C         1.8733076375        3.1958515767        4.5937557346
 C         2.5733269837        4.2363302808        3.6931608132
 C         1.6495322522        4.6007104383        2.4394513833
 C         0.8493772028        5.9147546710        2.4829143765
 C         2.9817613551        5.5202191710        4.4411164717
 C         3.8315018608        3.4468128467        3.1157215660
 O         1.2578827190        2.2432491104        4.0848105683
 O         1.7328876968        3.9375919569        1.4336788153
 C        -0.2796772582        5.8267494680        1.3525251466
 C        -1.4356738921        4.9331863296        1.9568822344
 C        -2.9440606084        5.2035545514        1.7666347170
 C        -3.1754956290        4.8425528044        0.1340769634
 C        -4.5902275250        4.3133147645       -0.1131727873
 O        -0.9851024390        3.9960336671        2.6680665180
 O        -2.3299519664        4.9773592735       -0.6778714057
 C        -3.8321836847        4.3314034500        2.7304598110
 C        -3.3672993881        6.6295386428        1.8686231742
 H        -1.6192386841      -10.0722897816       -7.7026847978
 H        -1.3129296951       -9.9682827023       -5.9370029005
 H        -2.8914222773      -10.5736963155       -6.5402383247
 H        -1.7118298830       -4.7086212946       -5.7364087298
 H        -2.9303909843       -5.2779125167       -6.7901434621
 H        -5.2277854779       -7.3806700316       -4.9830155565
 H        -5.0342234212       -8.7331341414       -6.0292006464
 H        -4.7384931965       -7.2145162303       -6.7445103708
 H        -3.7330749983       -8.7036171053       -3.3473168397
 H        -3.6778275535       -9.9540618997       -4.5939738449
 H        -2.2375095241       -9.3464192207       -3.9741229603
 H        -4.6120451219       -4.9058802196       -4.9611299942
 H        -3.4156894018       -4.3122945866       -3.9030107432
 H        -0.5007170679       -1.3213444457       -5.3693194162
 H        -1.7264533948       -0.8459570932       -6.5764529516
 H        -5.6729111092       -0.6101884489       -5.5125627589
 H        -4.4963808991       -0.5568081536       -6.8043349555
 H        -4.3623985174        0.4348711673       -5.1958045754
 H        -4.8036540583       -0.8536309912       -3.0593403803
 H        -5.7388423271       -2.3526420154       -3.6993736464
 H        -4.1974626078       -2.5729518676       -2.9286589910
 H        -2.0682609586        1.3574138241       -5.0972173641
 H        -0.6386907379        1.2863967943       -6.0900589431
 H         2.1397619961        3.2389055132       -2.2179689284
 H         2.1073370704        2.6971724709       -0.5175346470
 H        -0.4467714694        3.3426545654       -4.8798028330
 H         1.1185462884        3.3088655406       -4.1283264764
 H        -0.0517151788        4.1415127542       -3.3664079516
 H        -2.3457995669        1.6498243058       -2.1752693078
 H        -1.9034985523        3.3155067449       -2.0696749291
 H        -2.6117649622        2.5604222854       -3.5350290299
 H         2.1681283157        0.2756320672       -1.5371719435
 H         3.2325582105        0.8626272713       -2.6990338991
 H         4.3431693385       -2.3428913680        1.8218443623
 H         3.5998902537       -0.8413908401        2.0052983105
 H         5.0460361255       -2.2948434160       -1.8604286497
 H         5.7837465643       -0.6967943444       -2.3281147819
 H         4.1491775079       -1.1839464026       -2.7503675202
 H         6.7210752465       -0.0389602089       -0.1439627699
 H         5.7063986444       -0.3437930023        1.2333006172
 H         6.2312680806       -1.6576899053        0.3497444590
 H         1.9972610814       -2.6773196176        2.9691374590
 H         1.7898794226       -3.3243859185        1.3334553674
 H        -3.0866693476       -1.3359533094        3.1830424327
 H        -1.9246957280       -2.3917715692        3.8336464083
 H        -0.5158237172       -1.6876220812       -0.7251008530
 H        -1.1184235120       -0.2797743502        0.0318676580
 H        -1.9898164598       -1.7364977833        0.0963748945
 H        -1.6666402876       -3.3964499625        1.8344974252
 H        -0.1636934460       -3.8914977940        1.1155174551
 H        -0.3375209170       -3.4202926220        2.9162745573
 H        -2.3290731340        0.5163443781        4.8180068145
 H        -2.8650201429       -0.8782184335        5.6656480742
 H         1.9393136453        1.9071159498        7.9325124259
 H         2.1189369362        0.8050903375        6.4249780972
 H        -2.4631725820        1.2472921679        7.5643917483
 H        -1.3751190878        0.8133284559        8.7841902616
 H        -2.3270423800       -0.4352015349        8.1153322195
 H         1.4209866445       -1.0310852898        7.2263894995
 H         0.9394531474       -0.2452983602        8.7089231839
 H        -0.0417432329       -1.6480526711        8.0521758023
 H         3.2578753963        3.3936875885        6.1531371770
 H         1.6400920138        3.8278004345        6.6334153839
 H         0.4565919113        6.2517824193        3.4530258155
 H         1.4376727325        6.6909179096        2.0863136876
 H         3.4326430711        6.1440938474        3.6403302486
 H         3.8201590962        5.5530976242        5.1668467808
 H         2.0625953261        5.9655662319        4.8617822566
 H         3.4475698465        2.5420836281        2.6823163698
 H         4.5494588746        3.8562900554        2.3553296675
 H         4.5205520417        3.1410480829        3.9059934961
 H        -0.5436288999        6.8390128646        0.9408764276
 H         0.1470803635        5.1651906666        0.5762827965
 H        -4.9487273797        4.6321053694       -1.1133358291
 H        -4.7242645381        3.2461597066       -0.0405943811
 H        -5.2448932964        4.9341019822        0.5193551296
 H        -4.8280866257        4.2449398400        2.4587482707
 H        -3.9588280109        5.0309998064        3.5956309475
 H        -3.3333635212        3.3796758588        3.0188114668
 H        -2.7818660211        7.1671827818        1.1122715980
 H        -4.4798580127        6.7222799266        1.6512569917
 H        -3.0632579444        7.1047735405        2.7806663486
 Na        0.4811821184        1.9135659423        1.7712734305
