155

 C        -0.9445603239       -9.3903234655       -7.1334003606
 C        -1.3068740832       -7.9962408239       -6.5643722859
 C        -2.2625241934       -7.9090951496       -5.3604540093
 C        -2.1886886703       -6.3665171293       -4.8619353457
 C        -3.0554926729       -5.3772644526       -5.7109080791
 C        -3.7231551254       -8.1830117062       -6.0532475797
 C        -2.0053641925       -8.9769698633       -4.3213576413
 O        -0.7991108475       -6.9883545542       -7.0747357658
 O        -1.4752851010       -5.8874251964       -4.0163626977
 C        -2.5158076405       -3.9957089497       -5.5163011232
 C        -3.4092354145       -2.8460708598       -6.0121120314
 C        -3.9957473406       -1.7183020750       -5.0828007788
 C        -2.7972489206       -0.6597814834       -4.6091441602
 C        -1.6378503528       -0.4309924791       -5.6663411076
 O        -3.8015646321       -2.9165041156       -7.1956698212
 O        -2.7538076027       -0.2717287593       -3.4542714123
 C        -5.2875161980       -1.0616261882       -5.6110419139
 C        -4.5291731581       -2.5018599527       -3.8770875700
 C        -0.8167476256        0.7612611983       -5.3059378058
 C        -0.2036450057        0.9160898290       -3.7895481771
 C        -0.2874627736        2.3640098943       -3.1706731680
 C         0.4578122138        2.2836066256       -1.8493219334
 C         1.9498850266        2.0603274577       -1.7618623353
 C         0.5793486416        3.3626009011       -4.1935838084
 C        -1.7027370211        2.8475076953       -3.0659893684
 O         0.3189651699       -0.0829388553       -3.2991341371
 O        -0.2041349661        2.3297896038       -0.8017637710
 C         2.2608205268        0.6636253731       -1.0807991105
 C         3.6861201927        0.7678810313       -0.4073690272
 C         4.6016831108       -0.4298444339       -0.5754505708
 C         4.0237502364       -1.6730001742        0.2943491566
 C         3.8645891946       -1.6257708380        1.9381965133
 O         4.0805040626        1.8208709489        0.1115504856
 O         3.5802885048       -2.5701878668       -0.3312136450
 C         4.7162997728       -0.9375764274       -2.0199517137
 C         6.0332936933       -0.0849757176       -0.1361911176
 C         2.5244463963       -2.2705584626        2.3403945329
 C         1.3045866517       -1.2395074633        2.1236471345
 C        -0.1430285285       -1.7936972369        2.0014443238
 C        -1.1786702160       -0.7714820583        2.5371205560
 C        -2.4395678128       -1.3242385080        3.3567482993
 C        -0.5716524374       -2.0321932285        0.4716173267
 C        -0.3138500545       -3.1677519864        2.7297908895
 O         1.5962825320       -0.0892392103        1.8818708570
 O        -1.0819414270        0.4469381046        2.5419159320
 C        -2.4939423087       -0.5010821510        4.6651195246
 C        -1.2786259980       -0.6131490770        5.5152395517
 C        -1.1700187350        0.0414632976        6.9331998954
 C        -0.2603832731        1.2190384578        6.8486385633
 C         1.0958768768        1.1303127091        6.1810083684
 O        -0.2507862117       -1.1042829579        5.1040598297
 O        -0.4843639348        2.2228706127        7.4954600355
 C        -2.5447375043        0.6196075973        7.4382221332
 C        -0.6029535805       -1.0204046016        8.0165147435
 C         1.9009567427        2.4915051664        5.9884635353
 C         1.4500208220        2.9830418834        4.5565867744
 C         2.4772490085        3.9909325338        3.7386748357
 C         1.6566686203        4.3131190565        2.4817487180
 C         0.6235014484        5.4681223562        2.4977894673
 C         2.5577160724        5.2604417039        4.6527117405
 C         3.8117518545        3.5099169984        3.2911922376
 O         0.3608973305        2.7081192716        4.0564029726
 O         1.8201566524        3.6352496048        1.4495283284
 C        -0.3897956274        5.5174081791        1.2864469853
 C        -1.7493110679        4.8663684421        1.6722709239
 C        -3.1741559808        5.4026801240        1.5001778424
 C        -3.5496790939        4.6263217485        0.2151059479
 C        -4.1837618849        3.2044803974        0.2323561835
 O        -1.6238602020        3.7639542082        2.2307841040
 O        -3.3498007555        5.1943517886       -0.8621856223
 C        -3.9489867413        4.9904510951        2.6828220583
 C        -3.1638331900        6.9734847984        1.2061312784
 H        -0.5645818018       -9.3536679600       -8.1881647786
 H        -0.1769528101       -9.7309363009       -6.4621942313
 H        -1.7664039997       -9.9955728454       -7.0400913060
 H        -3.0184274769       -5.5377196982       -6.7937064727
 H        -4.0982372948       -5.4058840199       -5.3294147487
 H        -4.3473574503       -7.8113153452       -5.2505374022
 H        -3.9291108271       -9.2219072226       -6.3057589082
 H        -3.8031372786       -7.5925475038       -6.9168214807
 H        -2.8358377449       -9.0320886340       -3.6128161702
 H        -1.8958290467       -9.9858817100       -4.6825227451
 H        -1.1300899726       -8.7449607001       -3.6991752715
 H        -2.2095495502       -3.7935871833       -4.4930370721
 H        -1.5179239049       -3.9333417868       -6.1844193836
 H        -0.9958478471       -1.3395443903       -5.6404423411
 H        -1.8983052611       -0.3379362776       -6.7660580909
 H        -5.9857533991       -1.8262568718       -6.0621379578
 H        -5.0387676887       -0.4285321873       -6.4539629361
 H        -5.6900398048       -0.5342652681       -4.7773320021
 H        -4.7618337575       -1.6214689280       -3.1875725489
 H        -5.4057519789       -3.0497413605       -4.1623378791
 H        -3.7121747906       -3.1424194464       -3.4644880072
 H        -1.4136763472        1.7409654994       -5.5126891735
 H        -0.0153481349        0.8306384993       -6.0450092141
 H         2.3937351154        2.1254850593       -2.7693228700
 H         2.4303343857        2.9528782064       -1.3057170867
 H        -0.0863655246        3.3577854181       -5.0665213335
 H         1.4810636250        2.8609812037       -4.5434440368
 H         0.8952335495        4.3716491521       -3.7672680835
 H        -2.4321326332        2.0919500238       -3.2351269353
 H        -1.9217478255        3.3378778178       -2.0746789337
 H        -1.8674777491        3.5565064818       -3.7814625122
 H         1.6765637118        0.3000283761       -0.2194190289
 H         2.2531095210       -0.2613653272       -1.6594136838
 H         4.6108633561       -2.2394062961        2.4368462406
 H         3.9216405289       -0.5706214213        2.1101650372
 H         5.5689291898       -1.6990075702       -2.0352676772
 H         4.9363738183       -0.1261019077       -2.6909079357
 H         3.8324237231       -1.4716764222       -2.3651275224
 H         6.4808058970        0.7138423617       -0.5975014915
 H         6.0857844699        0.2841596610        0.8647328265
 H         6.7014404735       -0.9108421173       -0.2815902787
 H         2.6833010406       -2.5488302801        3.3897353821
 H         2.2957128992       -3.0668242537        1.6727404557
 H        -3.3801419761       -1.2085343727        2.7418526546
 H        -2.3369087212       -2.4368945918        3.5305081009
 H         0.0977659973       -2.6205525740       -0.1134552836
 H        -0.5924690714       -1.0772737985       -0.0167501776
 H        -1.5400791731       -2.4764394014        0.3666324206
 H        -1.2694727217       -3.6659381356        2.4410336595
 H         0.4697555054       -3.8147348827        2.3866262696
 H        -0.1115046873       -3.0904307371        3.8199405911
 H        -2.7370437657        0.4440617771        4.3332995199
 H        -3.3457330417       -0.8837214637        5.3608216009
 H         1.7223754860        0.4490252438        6.6794629491
 H         1.0629058137        0.7304070825        5.1599045946
 H        -3.0818757808        1.1908644170        6.7241571713
 H        -2.3208564844        1.2838259725        8.3445534537
 H        -3.1609906665       -0.2343778111        7.6128634184
 H         0.4591092625       -1.2033738349        8.0287858698
 H        -0.9403845376       -0.5269073479        8.9417789858
 H        -1.2604443957       -1.9201293039        7.9712306370
 H         2.9587970756        2.2383466870        5.8778431713
 H         1.7205337007        3.2962159705        6.7148360155
 H         0.0779946815        5.4577292206        3.4184260647
 H         1.3146486504        6.3712493184        2.5211707973
 H         3.2071638418        6.0737188950        4.3962156113
 H         3.1249461708        4.9169244676        5.5007659530
 H         1.6540087386        5.7126831297        4.9919466250
 H         3.9311047084        2.9497031684        2.3124188275
 H         4.4772354384        4.3467039671        3.2401678504
 H         4.1262764358        2.6587970992        3.9657362875
 H        -0.6674337114        6.4925355340        0.9143963857
 H         0.0635091522        4.9886726962        0.4231663293
 H        -4.7557845806        3.0631133384       -0.6550503823
 H        -3.4789024285        2.3231661881        0.3382815083
 H        -4.5851968573        3.1288775952        1.2466338252
 H        -5.0406325662        4.8679700012        2.4637562446
 H        -3.9182591276        5.6992483027        3.5258484560
 H        -3.5899956262        4.0192347544        2.8653890084
 H        -2.6490527259        7.0830002658        0.2711328143
 H        -4.1687228221        7.2809220250        1.0345027536
 H        -2.7835568372        7.5065008151        2.0483972014
 Na        0.1685999388        1.8935463672        1.6245943130
