155

 C        -0.0943808558       -8.7552485722       -7.2171233542
 C        -0.8487756857       -7.5573020429       -6.5799365139
 C        -1.8494763088       -7.7386314789       -5.3659097016
 C        -2.2039824225       -6.3579749011       -4.7646045308
 C        -2.9351076617       -5.4076795772       -5.7553388096
 C        -3.0504850219       -8.5381805604       -5.9231045910
 C        -1.1362604139       -8.5612310276       -4.2809337457
 O        -0.5104735006       -6.4276096468       -7.0161775436
 O        -1.9420944162       -6.1461921154       -3.6173530464
 C        -2.3197575650       -3.9197659959       -5.7480014748
 C        -3.3033327065       -2.8088575586       -6.1827818580
 C        -3.9152564997       -1.8475878987       -5.1693964870
 C        -2.8173070297       -0.9562080911       -4.6454741656
 C        -1.6385949483       -0.5329743955       -5.5045400936
 O        -3.3211738912       -2.5638528542       -7.4055993371
 O        -3.0829285171       -0.3924088267       -3.5894856746
 C        -4.9362099925       -0.9139833542       -5.8456173906
 C        -4.4632078375       -2.6536252256       -3.8462920736
 C        -1.2498765537        0.8995322074       -5.2030085915
 C        -0.4486959235        1.1237977594       -3.8854878055
 C        -0.2680288717        2.4836125233       -3.1054427771
 C         0.4907443667        2.2585987765       -1.7790392244
 C         2.0469466442        2.0181610701       -1.7622271569
 C         0.6615816319        3.4471365490       -3.9550005222
 C        -1.6265065152        3.3217669435       -2.9062878210
 O         0.1063553409        0.1574691345       -3.3205161741
 O        -0.1258847258        2.0830730093       -0.7349664150
 C         2.4530453979        0.7186692296       -1.1477410680
 C         3.9201543884        0.7575524410       -0.5049492028
 C         4.6626647528       -0.5203354246       -0.4632955846
 C         3.7833685145       -1.4946146971        0.4364051560
 C         3.7161377873       -1.1645888708        1.9488778812
 O         4.3306506651        1.7616811944        0.0426046068
 O         3.3516616803       -2.5060115567       -0.0210155077
 C         4.9442377214       -1.1021934047       -1.8439375197
 C         6.0337593148       -0.2803494736        0.2053406563
 C         2.5381376015       -1.8411065087        2.6241577168
 C         1.2383922203       -0.9889963412        2.3168737639
 C        -0.1217058966       -1.7003796050        2.0146297821
 C        -1.3600549507       -0.9430196448        2.6751633643
 C        -2.2970816590       -1.5414919114        3.6176065922
 C        -0.1547205866       -1.7217471432        0.4623181138
 C        -0.0775272847       -3.2240646432        2.3733947750
 O         1.2253222760        0.2063812779        2.4283392558
 O        -1.5655961384        0.2373979634        2.3378944853
 C        -2.5441981355       -0.8184344773        4.9492592922
 C        -1.2399901579       -0.6819156207        5.6380533751
 C        -1.2374550451        0.1791633838        7.0930295511
 C        -0.3242712917        1.4002668091        6.7693897228
 C         1.1592765148        1.0745851981        6.5312055740
 O        -0.2583360098       -1.3023039410        5.2875986878
 O        -0.8086283800        2.4604920491        6.4823930022
 C        -2.6888933419        0.5380305996        7.4385350712
 C        -0.6872385503       -0.7592306077        8.2570378668
 C         1.8798744223        2.2587522808        5.9841108858
 C         1.4563782832        2.5126339944        4.4908049487
 C         2.2168183186        3.7296625142        3.8297886022
 C         1.4158628028        4.2193322086        2.5977637187
 C         0.2682724483        5.2715502695        2.7335498091
 C         2.5947076554        4.7626771293        4.8797730427
 C         3.5409084869        3.0186228018        3.3450242762
 O         0.5320721478        1.9824014568        3.8845018033
 O         1.6936314248        3.7944793663        1.5059979445
 C        -0.4575469302        5.5067609640        1.3128322208
 C        -1.7461062833        4.5996801614        1.3201367184
 C        -3.1833403917        5.3758523512        1.1718841519
 C        -3.9039703148        4.7008351158       -0.0984136794
 C        -4.0509838577        3.2304390226       -0.3616484397
 O        -1.7526505319        3.4167162630        1.7717457530
 O        -4.4716117752        5.3662199766       -1.0064923485
 C        -3.8790862703        4.9515617768        2.4621638559
 C        -3.0780632031        6.9357581397        0.9396726558
 H         0.2799367819       -8.5003051940       -8.2030604814
 H         0.5364438543       -9.2006617591       -6.4930758155
 H        -0.8615520891       -9.5000097912       -7.4022969392
 H        -2.8704965190       -5.6985100189       -6.8252693174
 H        -3.9951333839       -5.4444657739       -5.4481490095
 H        -3.9722420395       -8.4072594409       -5.3091623546
 H        -2.7993018342       -9.5857616049       -5.8424877966
 H        -3.2823174429       -8.2090788596       -6.9965866648
 H        -1.7005150791       -8.5506744568       -3.3774867623
 H        -0.8051769910       -9.6110682774       -4.5098360171
 H        -0.1923252592       -8.1008031299       -4.0313896374
 H        -1.9381072999       -3.7364444182       -4.7765196678
 H        -1.4316223274       -3.9328049278       -6.3603980625
 H        -0.7959161898       -1.1702884316       -5.3381496965
 H        -1.8070590384       -0.7316522167       -6.5071026975
 H        -5.8717489496       -1.4009479332       -6.0258759368
 H        -4.4049107256       -0.5223407997       -6.7617848079
 H        -5.1467908116       -0.1580172454       -5.1041341643
 H        -4.4018226476       -1.8946607558       -3.0946446142
 H        -5.4728150067       -3.0253906098       -4.1404347841
 H        -3.9404359035       -3.5626662738       -3.6492745228
 H        -2.0535983320        1.5721309808       -5.2716924869
 H        -0.5105229881        1.2492505742       -5.9498997745
 H         2.4494102494        2.3272645126       -2.7453134211
 H         2.3772619666        2.8657547929       -1.0905007171
 H         0.1496787816        3.7582292853       -4.8021951377
 H         1.6406512869        2.8731387601       -4.1453337318
 H         0.8753110653        4.3275753352       -3.3126698429
 H        -1.7677364352        4.1719482993       -3.6102924105
 H        -2.3625319035        2.5316854949       -3.1486220832
 H        -1.7830726963        3.7037921333       -1.8927610623
 H         1.7600901551        0.5631238978       -0.3799952980
 H         2.4540203279       -0.0928033567       -1.9185334931
 H         4.6202863254       -1.5611084635        2.3507229766
 H         3.7532256729       -0.0586060735        1.9888236576
 H         4.9502361282       -2.1814591397       -1.8683748632
 H         5.8613832768       -0.6403613470       -2.2368751673
 H         4.1853479210       -0.8334398046       -2.6063621600
 H         6.5645974787        0.4660128489       -0.4202536929
 H         6.0543047030       -0.0250541889        1.2862761200
 H         6.6358280362       -1.1739363455        0.1560706215
 H         2.5391923024       -1.7340901030        3.7265378216
 H         2.5199215752       -2.9024581969        2.3328385868
 H        -3.2563191353       -1.5547691165        3.1072216786
 H        -2.0284100094       -2.6024816500        3.7076877486
 H         0.8750757856       -1.9540207761        0.1224171720
 H        -0.4246755378       -0.8069017099        0.0150955440
 H        -0.7955517657       -2.4853195220        0.0887408189
 H        -0.8125148692       -3.8160453993        1.9304848698
 H         0.9176085900       -3.5779713573        1.9798316805
 H        -0.2135139899       -3.4618877574        3.4438885724
 H        -3.0420598444        0.1234902141        4.5396394387
 H        -3.2800534759       -1.3232837330        5.4807516711
 H         1.8074329452        0.7178530312        7.4647894489
 H         1.1389812389        0.2312659265        5.8073971559
 H        -3.1700671091        1.0213928984        6.5222680128
 H        -2.6861651565        1.2742036719        8.2006100024
 H        -3.2061906885       -0.3359864279        7.8523384233
 H         0.2713713882       -1.0895443859        7.9646305147
 H        -0.5816087188       -0.1969067051        9.1633751884
 H        -1.4073467570       -1.5684355141        8.2685876978
 H         2.9161400894        2.4479953469        5.9786263984
 H         1.4143020990        3.0678113742        6.5136535534
 H        -0.4304180868        4.7120905958        3.3781946232
 H         0.4961513166        6.1911055187        3.0917851658
 H         3.1451099122        5.5096636313        4.3268977609
 H         3.2126848934        4.4431775875        5.7057951538
 H         1.8067880625        5.2452064835        5.4154769818
 H         3.1352942812        2.2895682263        2.6482512520
 H         4.3182599096        3.7190685968        2.9326736079
 H         3.9653248508        2.3953120721        4.1346582301
 H        -0.8088522979        6.5585911782        1.2455536184
 H         0.2259792109        5.2207702217        0.5188693819
 H        -3.5167292557        2.6070811239        0.4281288488
 H        -5.0786384681        3.0397919282       -0.2439434529
 H        -3.6483918109        3.0067902453       -1.3521451678
 H        -4.6079372581        5.7194659678        2.6082073161
 H        -3.2458900989        4.8129304531        3.3937638118
 H        -4.4941337335        4.0302400962        2.3821561995
 H        -2.4003053718        7.1936854960        0.1511615825
 H        -4.1493365168        7.1071616812        0.6734756893
 H        -2.7975951744        7.4143313255        1.7988990720
 Na       -0.1930034451        1.7910280947        1.5823816225
