155

 C         0.6870563284       -8.1143698023       -7.1463515939
 C        -0.2516345432       -7.0381538045       -6.5188390417
 C        -1.3128635550       -7.5677929128       -5.3997258305
 C        -2.0864365387       -6.3237278352       -4.6829801236
 C        -2.7613819069       -5.2844144774       -5.5488197710
 C        -2.4589940689       -8.4848406307       -5.9532732268
 C        -0.4060152735       -8.2748516201       -4.3482174176
 O        -0.2234493834       -5.8560418033       -6.8867959225
 O        -2.3022534937       -6.3061120757       -3.5024480607
 C        -2.0764992459       -3.9049943216       -5.4810265229
 C        -2.8563649577       -2.7424701116       -6.1086331426
 C        -3.8524291919       -1.8356089955       -5.2274964543
 C        -2.8424801050       -0.7068077119       -4.7345426348
 C        -1.7054489894       -0.3028314020       -5.6320630706
 O        -2.7449952367       -2.4184767551       -7.2559225818
 O        -2.8776694010       -0.2564646776       -3.5777780123
 C        -4.9377472664       -1.0039897909       -6.1061655746
 C        -4.7302118849       -2.6414159252       -4.0552371939
 C        -1.1769225318        1.1557978380       -5.1604936947
 C        -0.2579269930        1.1224001704       -4.0144561295
 C        -0.1240774233        2.3740907383       -3.0697666307
 C         0.5456858460        2.0768129949       -1.6257003257
 C         1.9830863410        2.1978019194       -1.3101653700
 C         0.7745552091        3.4110559971       -3.8756714130
 C        -1.5018626356        3.0923097492       -2.7214768586
 O         0.4376552059        0.1410913839       -3.7350803398
 O        -0.2225468249        1.7736705079       -0.7090499756
 C         2.6481455802        0.8456805495       -1.2427196595
 C         4.0979312195        0.8531346394       -0.5734052827
 C         4.5471186911       -0.5796806760       -0.0738462785
 C         3.4809267816       -1.3462146892        0.8143515110
 C         3.6031282820       -1.4488732614        2.3485416818
 O         4.9008195675        1.7221608295       -0.4214697393
 O         2.6073093630       -2.0164211586        0.2260268356
 C         4.8498067574       -1.3604962722       -1.3515224378
 C         5.8289054499       -0.5433743277        0.7944975006
 C         2.3197282879       -1.9154731511        2.9264531881
 C         1.1798372205       -1.2604142992        2.1386833593
 C        -0.0723148044       -2.0263415122        1.6114247156
 C        -1.1043029889       -1.2916141588        2.4512269111
 C        -1.9209983983       -2.0033540381        3.6017643620
 C        -0.4378057841       -1.6442740851        0.0720841191
 C        -0.0473468849       -3.5245584332        1.8692652306
 O         1.2601530225        0.0012054493        1.9704409670
 O        -1.2573605403       -0.0920863451        2.3923134818
 C        -2.2627654607       -0.9596783311        4.6914586151
 C        -1.1576404086       -0.8621999873        5.7871216942
 C        -1.3416783934        0.1537555912        7.0504378529
 C        -0.6178533767        1.4761263558        6.6665636624
 C         0.9448419093        1.4267064016        6.6980859863
 O        -0.2061847029       -1.6053219684        5.7589574001
 O        -1.1511455651        2.4938438449        6.2934303669
 C        -2.7653126163        0.4893644058        7.3934646125
 C        -0.5960346303       -0.3924317184        8.3174014411
 C         1.4485052904        2.7215860773        5.9975678199
 C         1.2927398704        2.7064016707        4.4801745572
 C         2.2313291866        3.6301554957        3.6094669981
 C         1.2081675376        4.0846062070        2.5198801112
 C        -0.1601914013        4.8874476145        2.8229216557
 C         2.8403296363        4.8337939159        4.4816423521
 C         3.4110405506        2.7000193773        3.1138685082
 O         0.6863072608        1.8495323467        3.8690420697
 O         1.3712817554        3.8124860290        1.3462911612
 C        -0.8442138212        5.4296811359        1.6162406635
 C        -2.1701381403        4.5753142741        1.3230628429
 C        -3.5460854087        5.2270762585        1.0608252536
 C        -4.2956624665        4.6918565675       -0.1351540327
 C        -5.0881962887        3.4190822797       -0.0069459168
 O        -2.0895302251        3.3986758082        1.5445106166
 O        -4.1375235568        5.3565178313       -1.1910901935
 C        -4.1891968339        5.0922771246        2.3933593502
 C        -3.4251355488        6.8071727453        0.8293731205
 H         0.8024924846       -8.0989838202       -8.1802324412
 H         1.7048448390       -7.9311152587       -6.7358509361
 H         0.2336805596       -9.0944886674       -6.7921284943
 H        -2.8316108822       -5.5211421950       -6.6083044289
 H        -3.7902405139       -5.1610007020       -5.2788771836
 H        -3.0563353688       -8.8192777793       -5.0807381411
 H        -1.9789051709       -9.4143674567       -6.4303720909
 H        -3.2168646037       -8.0785243125       -6.6811682934
 H        -0.7968138594       -8.1909073016       -3.2950833285
 H        -0.2689058957       -9.3335848928       -4.4280271497
 H         0.5624259676       -7.7647995985       -4.2831124512
 H        -2.0129799249       -3.6968961706       -4.3375078496
 H        -1.1397088094       -4.0814624779       -5.9341310665
 H        -0.9430168088       -1.0381586103       -5.5973976321
 H        -2.0725876023       -0.2112316197       -6.6507800807
 H        -5.8400430686       -1.5683414713       -6.2405204700
 H        -4.4632296749       -0.7426339067       -7.0092202129
 H        -5.1521506191       -0.0240402213       -5.6067741978
 H        -5.7439650999       -2.3658565324       -4.1793857788
 H        -4.8457675584       -3.6577082153       -4.3902324192
 H        -4.4255553390       -2.2896915003       -3.0864839352
 H        -1.9573413471        1.8468931047       -4.9505944828
 H        -0.5757283970        1.4988497583       -5.9671903033
 H         2.3311479277        2.8256265377       -2.1693751747
 H         2.1141308892        2.6064883139       -0.3552956531
 H         0.1321259596        3.7411985317       -4.6895335630
 H         1.5970815215        2.9129925777       -4.4082904491
 H         0.9428276807        4.2297907567       -3.3030579545
 H        -2.1616705139        3.3570879866       -3.6079731600
 H        -2.0732595939        2.4168332862       -2.1195110665
 H        -1.1835031228        3.9964316140       -2.0577789174
 H         2.0612340136        0.1041667006       -0.5593406856
 H         2.7689017303        0.5075399786       -2.2550482893
 H         4.3537731201       -2.2840209856        2.5908393297
 H         4.0811696013       -0.5956985134        2.7978265386
 H         5.8451619242       -1.7087727078       -1.3772150263
 H         4.9421846891       -0.7555119202       -2.2687018526
 H         4.0793907391       -2.0827791443       -1.5876080152
 H         6.7178022495       -0.5188763150        0.0701663265
 H         5.8049443431        0.3118299686        1.5021276656
 H         5.9045040004       -1.5393595126        1.2930026849
 H         2.1337885914       -1.6855164372        3.9883520411
 H         2.2211095443       -3.0597243541        2.9868606378
 H        -2.8758698011       -2.1923996617        3.1260631537
 H        -1.5604257780       -2.8994568946        3.9829982231
 H         0.4510549026       -1.7524015420       -0.5058728447
 H        -0.7199354978       -0.5834388982        0.0460461081
 H        -1.2250099887       -2.2756084590       -0.3604370527
 H        -1.0879842689       -3.9538877166        1.7702090342
 H         0.5381208781       -4.0800143051        1.1282828133
 H         0.3583694689       -3.7956418384        2.8371823561
 H        -2.4293851820       -0.0457270582        4.2047708537
 H        -3.2590026063       -1.3222461967        5.0761343483
 H         1.4687489618        1.5811178745        7.5882199167
 H         1.3285069578        0.4626948999        6.2959735721
 H        -3.2116973125        0.9479427214        6.4927505724
 H        -2.7555670064        1.2032103072        8.1674130954
 H        -3.3274548149       -0.4382381014        7.7213846347
 H         0.2114979452       -0.9082767561        7.7785397133
 H        -0.3820198946        0.4049133676        8.9939599816
 H        -1.1596985180       -1.0661591231        8.8555923909
 H         2.4842737476        3.0031121002        6.2052640444
 H         0.9015140063        3.5546925679        6.4771141183
 H        -0.8703503044        4.2410596140        3.3026289575
 H         0.0997977876        5.6791323182        3.6214468237
 H         3.4405290523        5.4393131955        3.8055280940
 H         3.5254131646        4.4697220505        5.2270041257
 H         2.0676187230        5.5696868369        4.7436079148
 H         4.2597516665        3.3474088174        3.0407028835
 H         3.4945860167        1.8281041180        3.7096437752
 H         3.0860633090        2.1944759225        2.2610815726
 H        -0.9080315609        6.4951599866        1.6621012593
 H        -0.2071682769        5.0928978620        0.7675175515
 H        -5.7504104389        3.2793271747       -0.8381040525
 H        -4.3446112494        2.6656273809        0.2177204887
 H        -5.6010541369        3.3595742181        0.8985678685
 H        -5.2397037057        4.7301070243        2.2859494452
 H        -4.1555161208        6.0109115329        2.9084053978
 H        -3.7567488466        4.3537307432        3.1197431402
 H        -2.6320076558        7.0156023476        0.1268929134
 H        -4.3542104195        7.2082730447        0.3938347993
 H        -3.2715735602        7.2953459135        1.8230908180
 Na       -0.3717403687        1.7429504529        1.6175276711
