155

 C         3.4549059666       -4.7957047161       -6.4342435163
 C         2.8460963788       -4.7179398593       -5.0529338626
 C         1.7564210912       -5.8221518816       -4.5181104648
 C         0.2780170685       -5.2280355840       -4.4258329821
 C        -0.0713884677       -3.7464613997       -4.7688872217
 C         1.7003858511       -7.1600841354       -5.2677816351
 C         2.1526671286       -5.9638564867       -3.0002922516
 O         3.0424748722       -3.7427486076       -4.3062622331
 O        -0.6214470094       -6.0292520093       -4.1540153291
 C        -1.5256061503       -3.5898657871       -5.1108431555
 C        -1.6894058975       -2.7912715363       -6.4609893564
 C        -2.4750468990       -1.4585086827       -6.5957009826
 C        -1.7244182003       -0.3436425072       -5.8015803336
 C        -0.2349626874       -0.2364105578       -6.0346619174
 O        -1.0230954550       -3.0724220132       -7.4215560657
 O        -2.3127736851        0.3859983652       -5.0793679145
 C        -2.5715550795       -1.0015718146       -8.0642469901
 C        -3.8653051248       -1.6200912890       -6.0167628157
 C         0.2811571675        1.1227896244       -5.4874189457
 C         0.3069428120        0.9612225002       -3.8888342042
 C         0.6927813807        2.2388568337       -3.1071464773
 C         0.5690166377        1.7354235219       -1.5056679029
 C         1.8381181401        1.2905330015       -0.8701726988
 C         2.1969322900        2.7197731900       -3.5618224894
 C        -0.3440148085        3.4170089354       -3.1754869845
 O         0.2760409040       -0.0908873437       -3.3760515134
 O        -0.5260002636        1.8236137585       -0.9649360833
 C         2.4812298106       -0.0221136178       -1.3798404774
 C         3.7583687753       -0.4037990430       -0.5343802775
 C         4.1698244006       -1.9115434769       -0.3879317993
 C         2.8894609420       -2.5261512100        0.3277849101
 C         2.6287721730       -2.0360999450        1.6951864087
 O         4.3161014705        0.4392237279        0.0997721957
 O         2.0331982704       -3.0220749952       -0.4055691442
 C         4.5630699304       -2.7432164494       -1.7399146105
 C         5.4875943596       -1.8734455627        0.5073102935
 C         1.2956243310       -2.5417199330        2.2350566739
 C         0.2930627244       -1.4877822805        1.8476052483
 C        -1.1338285320       -1.9265900672        1.4829423596
 C        -1.8819936341       -1.2978646364        2.7227988323
 C        -2.5060917699       -2.2244557737        3.7759801909
 C        -1.5125074471       -1.2734633251        0.1031692178
 C        -1.2844333345       -3.5028806608        1.2944853146
 O         0.6857664248       -0.3112042494        1.7262770731
 O        -2.0161912434       -0.1305990676        2.9109882064
 C        -2.8248144398       -1.4686280562        5.0680537724
 C        -1.6306674059       -0.7836639275        5.7240316772
 C        -1.8005940345        0.5110463333        6.6668811616
 C        -0.9888906472        1.6442823191        6.1115616929
 C         0.5350561684        1.6839179971        6.4461768319
 O        -0.4816542822       -1.1550543996        5.5966121692
 O        -1.5118283610        2.6055597688        5.5958847925
 C        -3.2837737178        0.8788000209        6.8857789170
 C        -1.1137701704        0.0882797558        8.0196775213
 C         1.1546445658        2.9861884601        5.6848363694
 C         0.7499722562        3.0882218610        4.2052986132
 C         0.5798686448        4.5124695094        3.6907639049
 C        -0.3087643494        4.5212111693        2.3580620675
 C        -1.7401298561        5.1996892405        2.3839932232
 C         0.0910266672        5.5157297536        4.8176732156
 C         2.0317887375        4.9252241300        3.2817370891
 O         0.5029211296        2.0712060368        3.5376866432
 O         0.0742298456        3.9365172522        1.3820134261
 C        -2.6146868952        4.7905204719        1.2415525670
 C        -3.4581330980        3.4349134564        1.6153798875
 C        -4.8834899882        3.3805721057        2.2309009825
 C        -6.0288875159        3.6532267452        1.0506263212
 C        -6.3980146884        5.1385367255        0.6988970064
 O        -3.0995990123        2.3689899814        1.1200200919
 O        -6.5779127387        2.7142022650        0.5167879178
 C        -5.1683301341        1.9648587071        2.7869808425
 C        -5.1804382150        4.4311756681        3.3284826293
 H         2.5855172826       -4.9552667144       -7.1004557601
 H         4.0809640515       -3.9139956288       -6.6816012751
 H         4.1691216038       -5.6059294259       -6.5363198533
 H         0.2106840967       -3.0848966031       -3.9312698942
 H         0.4898951998       -3.4031463035       -5.5465534017
 H         0.7654556617       -7.7733746232       -4.9644504661
 H         2.6511307288       -7.7271741494       -5.0939025355
 H         1.6575838679       -6.8308976603       -6.3134082645
 H         1.7482939127       -6.8607614198       -2.6376461551
 H         3.2451282269       -5.9286891132       -2.9738473630
 H         1.7421855631       -5.0928863749       -2.5307118829
 H        -1.8993061606       -4.6615783522       -5.1872182215
 H        -2.1701032881       -3.0426875532       -4.3697889324
 H         0.0901069384       -1.0319781526       -5.3794793694
 H         0.0306719400       -0.5256082450       -7.0201462081
 H        -3.1641368945       -1.6798201593       -8.6949990914
 H        -1.6301122667       -0.8310274917       -8.5134596890
 H        -2.8880139134        0.0093301055       -8.0049457554
 H        -4.2792254596       -0.6448707928       -5.6259367103
 H        -4.4450526487       -1.9993342259       -6.8203184441
 H        -3.7542586556       -2.1600875265       -5.0824902592
 H        -0.3474515462        1.8942401387       -5.7909515682
 H         1.3385720351        1.3735940381       -5.7396371051
 H         2.5822299957        2.1099015798       -0.9682559846
 H         1.5830385078        1.2500596488        0.1902417828
 H         1.9384384675        3.5445493421       -4.2949557983
 H         2.8456085646        1.9031695387       -4.0290751235
 H         2.8094440311        3.0471221040       -2.7679601236
 H        -0.0767451550        4.0162497980       -4.1185950377
 H        -1.3792618289        3.1408233993       -3.3011953486
 H        -0.2531892545        4.1128091455       -2.3045398276
 H         1.6468620705       -0.6928675418       -1.1554795108
 H         2.6914616028       -0.1418347783       -2.4210391260
 H         3.4659528375       -2.4262413803        2.3341302801
 H         2.5660731170       -0.9788367187        1.6421147473
 H         4.6433072189       -3.8557691532       -1.4513793689
 H         5.5840271581       -2.4883605909       -1.9160497876
 H         3.9678895937       -2.6999653339       -2.6166945667
 H         6.2224963171       -1.2644042932       -0.0269191777
 H         5.3861351796       -1.3618350395        1.5074785959
 H         6.0059734504       -2.8168017408        0.8337650170
 H         1.3470738644       -2.5968545625        3.2988012204
 H         1.1412742276       -3.5755938945        1.8338683625
 H        -3.4803974335       -2.6883697928        3.3932456854
 H        -1.8837276250       -3.0346140793        4.0316299914
 H        -1.9655260733       -1.9830129811       -0.5480921468
 H        -0.6737844635       -0.8300384898       -0.4755965195
 H        -2.2550031118       -0.5029580747        0.3999112069
 H        -2.1772071726       -3.9558955429        0.8046333960
 H        -0.5331094609       -3.8224353336        0.6621437164
 H        -1.1088163445       -4.0085444373        2.2321261703
 H        -3.5228072495       -0.6650742798        4.9819982491
 H        -3.3252513832       -2.2002507741        5.7990390110
 H         0.5045791087        1.8319070684        7.5387046452
 H         1.0887493595        0.8501634770        6.0974674675
 H        -3.7569228820        1.0183595862        5.9172600613
 H        -3.4596927439        1.6859610749        7.6058623906
 H        -3.7451921108       -0.0462008579        7.1784702501
 H        -0.1637285543       -0.4261089885        7.9242377701
 H        -0.8510464802        0.8751815161        8.7263012116
 H        -1.7254857661       -0.6099276254        8.6578079202
 H         2.2188488756        2.9417209759        5.9424429781
 H         0.7327798732        3.8134214459        6.2718002495
 H        -2.3023671446        5.0296811260        3.2317110892
 H        -1.6500039653        6.3123628008        2.4318625360
 H        -0.2681068389        6.5266305294        4.5659164359
 H         0.6852730440        5.3899248429        5.7159931585
 H        -0.7667381126        4.9575470593        5.1484391293
 H         2.1812578876        4.4060434381        2.3124676574
 H         2.1106384516        6.0296679304        3.2130323273
 H         2.9292771450        4.6556489238        3.9321264804
 H        -3.3704759445        5.5119816109        0.9368329552
 H        -2.0523952580        4.5586540381        0.3024988612
 H        -6.6380159542        5.2315596585       -0.3542376549
 H        -7.2589540042        5.5328149329        1.1909225734
 H        -5.5090861615        5.7340891216        0.8338182821
 H        -6.2186198485        1.8618034620        2.8932035183
 H        -4.6979883753        1.7705908372        3.7913569382
 H        -4.6890450637        1.3369504093        2.0467716362
 H        -5.0467703745        5.5138297846        3.0180963839
 H        -6.2281928951        4.2740134206        3.5539315884
 H        -4.5155428769        4.2769132705        4.2510822229
 Na       -0.8729183115        1.5940536770        1.2966683568
