155

 C         2.9424678033       -5.5177612437       -7.0670851998
 C         3.2871958781       -5.4480073312       -5.5130952882
 C         2.1373014206       -6.1691200978       -4.5290135745
 C         0.8557585400       -5.2247833650       -4.8758685668
 C         0.9856817441       -3.7607895149       -4.2905249205
 C         1.9920317682       -7.6346863314       -4.9105488181
 C         2.7030358264       -6.0106929526       -3.1084865532
 O         4.3792059561       -5.1434776620       -5.0856799834
 O        -0.0098441530       -5.5921374182       -5.5821813018
 C        -0.2696090231       -3.0330330595       -4.8305062734
 C        -0.0079965743       -2.5231123745       -6.2667938838
 C        -1.0643259737       -1.8501525628       -7.1844453059
 C        -1.2162413639       -0.2972316887       -6.6159402640
 C         0.0388351870        0.5183920174       -6.4266523894
 O         1.1415566777       -2.5029658362       -6.7305963126
 O        -2.2766960574        0.1084759827       -6.2162954509
 C        -0.5809389244       -1.6889726956       -8.6481897687
 C        -2.4733829853       -2.5074646550       -6.9607377714
 C        -0.1752834633        1.7425967583       -5.4580871849
 C         0.7040186999        1.7944340179       -4.2759489797
 C         0.3867519351        2.9550275580       -3.1301267772
 C         0.9965301483        2.4574870363       -1.6816497998
 C         2.5045470764        2.0530797109       -1.5833124152
 C         1.1458532299        4.3109212001       -3.4501046549
 C        -1.1677856932        3.2446126380       -2.9379095259
 O         1.5993537813        0.9819760275       -4.0104188820
 O         0.1905564235        2.2472077508       -0.8057045615
 C         2.5684388042        0.5365778341       -1.0501244560
 C         3.8279903465        0.2156780678       -0.1548718659
 C         4.1967313006       -1.2958525083        0.1182902117
 C         2.8698069205       -1.9374317399        0.4878693863
 C         2.5577818701       -2.0624015387        1.9757202415
 O         4.4516986173        1.2096336513        0.1527099165
 O         2.1129719790       -2.3528201718       -0.3432402466
 C         4.5694764437       -1.7868984663       -1.2438327041
 C         5.2591464463       -1.1590176528        1.2661493031
 C         1.1578742913       -2.6964543038        2.2478271277
 C         0.0581557124       -1.7565250628        1.7557648197
 C        -1.4464808567       -2.2584039471        1.8972884402
 C        -2.2390717560       -1.2988836991        2.8876328133
 C        -3.2743918767       -1.9195742826        3.9387694719
 C        -2.1206717474       -2.2659339826        0.4490347654
 C        -1.4150581258       -3.6758050394        2.5804478981
 O         0.3678075252       -0.6943636946        1.1888171957
 O        -2.0902286822       -0.0909813273        2.8484745348
 C        -3.5784326556       -1.0041298482        5.1432320505
 C        -2.2084809164       -0.7825811360        5.9361904396
 C        -2.1369177871        0.2382967440        7.0819538439
 C        -1.4180115170        1.5197701384        6.4490140046
 C         0.0594958073        1.7355401315        6.6021988382
 O        -1.1928984416       -1.3989772748        5.6837787731
 O        -2.1626298240        2.3953643835        5.9888024600
 C        -3.5906919409        0.7719247873        7.4753336748
 C        -1.3640375156       -0.2746703177        8.2560830595
 C         0.7325970796        2.7818188500        5.6439414553
 C         0.1719283302        2.9253822325        4.2292982069
 C         0.1287952559        4.3139971370        3.5690952876
 C        -1.0449155914        4.3287625299        2.4825783913
 C        -2.3946172811        4.8499729587        2.9950573797
 C        -0.0517397200        5.5220927414        4.6186796332
 C         1.5266624322        4.5619993196        2.9120600922
 O         0.0264422543        1.9122680561        3.5781047991
 O        -0.8214674940        3.9384993273        1.3909239042
 C        -3.4501173094        4.4971991515        2.0051661012
 C        -3.8959508279        3.1027116127        1.8782695736
 C        -5.4036548483        2.8943883225        2.1759272914
 C        -6.3835182375        3.4625734843        1.0074814949
 C        -7.4993527610        4.4629048982        1.3428362384
 O        -3.2451809591        2.1127969084        1.6225749452
 O        -6.0852267470        3.0262711626       -0.0831742047
 C        -5.7842552127        1.3955821541        1.9989471961
 C        -5.9111946595        3.3299842226        3.5494220988
 H         2.2827099709       -4.8002514227       -7.4305800122
 H         3.8786895069       -5.2839864763       -7.5821392363
 H         2.5497352485       -6.5718666723       -7.2576824083
 H         1.1116578019       -3.7887272854       -3.2263525987
 H         1.7933391710       -3.2406673905       -4.7470895584
 H         1.3435259588       -8.2512157956       -4.2913813469
 H         2.9710617966       -8.0651547728       -4.8488549003
 H         1.7235173337       -7.8695814841       -5.8649471108
 H         2.9754956768       -4.9995832517       -2.7807712001
 H         2.1708357420       -6.4422542670       -2.2205739011
 H         3.6609534176       -6.5860670452       -3.1198354967
 H        -1.1829039518       -3.5740980022       -4.9575016331
 H        -0.4938574258       -2.2049313872       -4.1763210439
 H         0.8929470999       -0.1210123270       -5.9656153422
 H         0.2380377750        0.8411124985       -7.4811174734
 H        -0.6570955954       -2.6775587968       -9.1136917250
 H         0.3501397103       -1.2209951666       -8.7983465879
 H        -1.2156960604       -1.0049880296       -9.1605189305
 H        -3.1807845539       -2.2854583467       -7.8169042744
 H        -2.1955964824       -3.5168259917       -7.0035498596
 H        -2.9584144396       -2.0502614596       -6.1112654348
 H        -1.2530306644        1.7702674141       -5.1048537717
 H         0.0126260903        2.6593042093       -6.0123919103
 H         2.9575735169        2.0506933344       -2.6175456726
 H         2.9968171498        2.7896837135       -0.9583147581
 H         0.5025917315        5.0492688696       -3.8862412080
 H         1.9931098764        4.1059514368       -4.1504295837
 H         1.6492495685        4.6803374963       -2.5558495745
 H        -1.4348030661        3.4299102846       -3.9452763865
 H        -1.7555576090        2.4494731479       -2.5495666670
 H        -1.2933533241        4.2171661610       -2.5411411410
 H         1.6728131909        0.3251732809       -0.3711769967
 H         2.5199687183       -0.0589066388       -1.9350185997
 H         3.2629283384       -2.7511736634        2.4852573156
 H         2.7032273358       -1.1443903822        2.4294610754
 H         4.6880686054       -2.9150278762       -1.1876902829
 H         5.5192562253       -1.2539797828       -1.4516202943
 H         3.7132247988       -1.7194102840       -1.9835593330
 H         6.2368728969       -0.7958389044        1.0594109359
 H         4.8065959022       -0.3699408344        1.8648071698
 H         5.3249439809       -1.9311984749        2.0398768066
 H         1.0312737352       -2.8091096049        3.3619960925
 H         1.1078445918       -3.6654810786        1.7783507591
 H        -4.1923675854       -2.1305760118        3.3403334186
 H        -2.8788374885       -2.8884988964        4.2683221242
 H        -3.0646104692       -2.7998733853        0.5357029214
 H        -1.6821672184       -2.9413724163       -0.3378589902
 H        -2.4146365897       -1.2665616865        0.0182716440
 H        -2.4316832354       -4.1976992352        2.3877920057
 H        -0.7326347002       -4.2041096567        1.9837266541
 H        -1.0509287242       -3.6844668998        3.6236160846
 H        -4.0428150293       -0.0190231797        4.9568991533
 H        -4.2404801428       -1.5783450244        5.7628717052
 H         0.3913435259        1.9202661531        7.6135743704
 H         0.6793164638        0.8390550863        6.2977124334
 H        -4.0482714094        1.1678401149        6.5539173839
 H        -3.6036760928        1.3090663114        8.3481242726
 H        -4.2838152709       -0.0848484906        7.6618100511
 H        -0.2723665991       -0.3834391052        8.1028668042
 H        -1.4254421182        0.4678180127        8.9947060328
 H        -1.7371179878       -1.1310496508        8.8102170557
 H         1.7301689635        2.3767096056        5.3313231222
 H         0.8767463991        3.7395682755        6.1990131236
 H        -2.5710869851        4.3286287121        3.9842975523
 H        -2.3427273900        5.9038287771        3.2295099629
 H        -0.2819918440        6.5223705159        4.1637948097
 H         0.7661362735        5.3827160201        5.3042031814
 H        -0.9167316980        5.3291966291        5.2458904842
 H         1.4172564419        5.5532596163        2.4218714876
 H         2.3575973778        4.6200310376        3.5614582463
 H         1.7250106978        3.8075798253        2.1484859644
 H        -4.2838574488        5.1655348393        2.0330540370
 H        -2.9709859845        4.7817133420        0.9800256128
 H        -8.4099062973        4.3752964609        0.6406712755
 H        -7.9856204499        4.2635633570        2.2869501670
 H        -7.0886654438        5.4891181956        1.3036786806
 H        -6.8127813171        1.3863609987        1.6878807226
 H        -5.7603414420        0.7441451496        2.9248411594
 H        -5.2251253268        0.9732692566        1.1885333598
 H        -5.9243053175        4.3408919661        3.8283872766
 H        -6.8840836000        2.8575680491        3.5848249277
 H        -5.3462916833        2.8157165086        4.3992803976
 Na       -0.8512264987        1.3060472558        1.1896061839
