155

 C         3.2216929952       -5.7622506344       -7.4453024188
 C         3.4465229677       -6.1336962941       -5.9661712768
 C         2.3067259739       -6.8984537482       -5.1401875153
 C         1.1644389979       -5.9435895269       -5.1015611871
 C         1.2188810507       -4.5142554114       -4.3659499917
 C         1.9017361486       -8.2487418272       -5.6855437734
 C         2.8559879189       -7.0452030945       -3.6652534533
 O         4.5450585476       -5.9395621526       -5.4743926088
 O         0.0628964327       -6.1074863474       -5.5552342572
 C         0.3850002297       -3.4179445659       -5.0693567881
 C         1.2945550350       -2.5998183701       -6.0043125716
 C         0.7334363196       -1.2457965277       -6.7504648984
 C        -0.0540580403       -0.3169233564       -5.7960597657
 C        -0.1224117152        1.1782868439       -6.1568960450
 O         2.4512999871       -2.8328240178       -6.1625837672
 O        -0.7242824015       -0.8249948627       -4.9149298144
 C         1.9386763447       -0.6165757586       -7.5086945097
 C        -0.2790288375       -1.7219124144       -7.8104214168
 C        -0.8281530369        1.9021297886       -4.9577104527
 C         0.0498254112        2.1337397564       -3.8028009459
 C        -0.5275705306        3.1722912916       -2.6863047453
 C        -0.4180939931        2.4438218596       -1.3097927585
 C         0.9119445526        2.5497763025       -0.4644938859
 C         0.3425704320        4.4374631694       -2.7277259189
 C        -2.0686471066        3.5699255971       -2.7959788702
 O         1.1783562819        1.7283819264       -3.6301414285
 O        -1.3167922905        1.7568770907       -0.8765234624
 C         1.7048054514        1.2002096272       -0.5990647663
 C         2.6472426875        0.9267205533        0.6690062499
 C         3.8230715344       -0.1933135466        0.4686095193
 C         2.9411842152       -1.4771536364        0.6870815467
 C         2.5892224515       -2.0151326336        2.1008479334
 O         2.3934555541        1.4563968475        1.7044223502
 O         2.5612625057       -2.0330364016       -0.2947750728
 C         4.4263193622       -0.1018529390       -0.9493703410
 C         4.9628151088       -0.1802002616        1.4980305601
 C         1.2401668004       -2.7021407348        2.1329646908
 C         0.1626606577       -1.7315097258        1.6799253888
 C        -1.3618267394       -2.1750736645        1.5651784568
 C        -2.0337028807       -1.5014056778        2.7537576064
 C        -2.5451358642       -2.3582957686        3.9482864641
 C        -1.8113832808       -1.4761245762        0.2400058246
 C        -1.5690336621       -3.8115184042        1.4873888572
 O         0.3449304702       -0.5624264069        1.5772903234
 O        -1.9902720048       -0.3052717057        2.9103319422
 C        -3.0466106630       -1.4581636603        5.0059044985
 C        -1.9307873083       -0.8855064817        5.9957094210
 C        -2.2132777662        0.4101659291        6.8988387101
 C        -1.4834986400        1.6925920560        6.3436356924
 C         0.0124625009        1.7227449564        6.5318640208
 O        -0.9311557273       -1.5184111803        6.0690135548
 O        -2.1592315807        2.5827709006        5.8918774871
 C        -3.7166391581        0.7533645783        6.8341003186
 C        -1.6324558082        0.0802774782        8.3777829525
 C         0.7450881639        2.7785649036        5.5138589897
 C         0.1406278112        2.8401566255        4.1153263610
 C         0.0248050981        4.3221152921        3.3899114415
 C        -1.0113331767        4.2186981843        2.2199724780
 C        -2.4715186419        3.8415453077        2.5513176748
 C        -0.4269477174        5.3440809601        4.3372359820
 C         1.5138841617        4.6089305421        2.8102095489
 O        -0.0128613800        1.7783877207        3.5194757242
 O        -0.7224902195        4.4011160824        1.0588903240
 C        -3.3886350390        3.8696979203        1.3728269923
 C        -4.0809741545        2.5869188137        1.2231957071
 C        -5.6425086043        2.4554982097        1.3310035825
 C        -6.5553624788        3.6978101517        0.7448003193
 C        -8.1524629130        3.3961314818        0.6986530214
 O        -3.5054561991        1.5032680942        1.1472339176
 O        -6.0208734819        4.7592530855        0.4326366253
 C        -6.0803522998        1.0619777720        0.6655601441
 C        -5.9459282509        2.3796569931        2.8776801885
 H         2.2005728979       -5.5661423384       -7.6109859226
 H         3.7118268607       -4.8701658191       -7.7477763238
 H         3.7310995963       -6.6156082696       -8.0468756681
 H         0.8507529256       -4.5484416740       -3.4205383582
 H         2.2589201563       -4.1481995625       -4.2025658621
 H         0.9156385587       -8.6218587576       -5.2153682377
 H         2.7205078472       -9.0139981406       -5.4888791956
 H         1.7390957556       -8.1943317404       -6.7665303879
 H         3.1068290268       -6.0943182050       -3.2943967271
 H         2.0612726123       -7.4259479793       -2.9907901051
 H         3.6854460959       -7.6806172015       -3.5031356843
 H        -0.4168617553       -3.7970118380       -5.7191574972
 H        -0.1002971598       -2.8209187734       -4.3167649602
 H         0.8875854052        1.5879664612       -6.4101935197
 H        -0.6849584223        1.4028839476       -7.1324533776
 H         2.3617193500       -1.3185187542       -8.2279019055
 H         2.6572560387       -0.1932187411       -6.8039060186
 H         1.5954107675        0.2833476404       -8.0371053503
 H        -0.5742132040       -0.9139548038       -8.5486568928
 H         0.1751423531       -2.5798202017       -8.2702772822
 H        -1.1763358964       -2.0826017351       -7.3004282797
 H        -1.6462783331        1.2342200735       -4.7189796855
 H        -1.4007055364        2.8141448616       -5.1516356667
 H         1.4987641245        3.4570438553       -0.5473010072
 H         0.6491018069        2.5561368451        0.5883615824
 H         0.5568040392        4.7896161248       -1.7952066347
 H        -0.1018627504        5.2687060477       -3.2182196791
 H         1.2463997365        4.2007284865       -3.3582096721
 H        -2.1662419978        4.4767733053       -3.4303077773
 H        -2.6628791914        2.8266448989       -3.3560672160
 H        -2.5330732678        3.8744935646       -1.8206590470
 H         1.1414241539        0.2799063663       -0.8260033738
 H         2.3117283432        1.3876033612       -1.5130973693
 H         3.2716519208       -2.7627231187        2.3561896351
 H         2.7860007112       -1.2719304065        2.8935876939
 H         5.2909103216       -0.6834687636       -0.9849914139
 H         4.8614757054        0.8541064483       -0.9442197333
 H         3.7557786547       -0.3458471859       -1.7621482702
 H         5.6064634354        0.6197283029        1.2259429342
 H         4.5311047304        0.0120826809        2.5073225851
 H         5.4688269345       -1.1619385015        1.4953173453
 H         0.9353985881       -3.0792513010        3.1183810370
 H         1.3350765937       -3.5620712176        1.4143588630
 H        -3.3075318411       -2.9334576296        3.5059841448
 H        -1.7097101550       -3.0505332286        4.3535775248
 H        -2.1394055699       -2.1938471153       -0.4872258950
 H        -1.1216514891       -0.8408349607       -0.3502188818
 H        -2.5875072246       -0.7622975381        0.4719979973
 H        -2.6240916633       -4.2329673655        1.3213467209
 H        -0.9883193418       -4.1413024481        0.6961969142
 H        -1.2222173928       -4.3109889518        2.4160146087
 H        -3.5897861715       -0.6256870603        4.5634975520
 H        -3.7743579069       -1.9813497207        5.5794154951
 H         0.1518312652        2.1764173106        7.5220978622
 H         0.5029688099        0.6851349613        6.5297947539
 H        -3.9527178525        0.8687926207        5.7660911873
 H        -3.8510420036        1.5930454340        7.4402795557
 H        -4.3189771010       -0.0694478399        7.2253534710
 H        -0.5098205177        0.1644366789        8.3071301077
 H        -2.0736091582        0.8526486336        8.9545566741
 H        -1.9333656939       -0.8450901962        8.9066406512
 H         1.7780787387        2.3289383567        5.3778732928
 H         1.0264137696        3.7757948812        5.8937253345
 H        -2.5660597410        2.9504925352        3.2019051875
 H        -2.8445836992        4.6632100666        3.1907454035
 H        -0.6402380804        6.2628913753        3.8317090528
 H         0.2146047825        5.4267472484        5.1888262932
 H        -1.3401427954        5.1415454920        4.8297686217
 H         2.2266412303        4.3356897996        3.6452324536
 H         1.7845851660        4.0349253432        1.9488595499
 H         1.6229944020        5.7128108656        2.7437411414
 H        -4.0596296763        4.7142798645        1.6757441130
 H        -2.9170173985        4.1573853361        0.4021918807
 H        -8.7605332000        4.0323613360        0.0305944128
 H        -8.4100211150        2.3540440275        0.7145442285
 H        -8.5376733954        3.6052997988        1.6894627837
 H        -6.9912138308        0.6314529748        1.0732211106
 H        -5.4536705925        0.1710500462        0.7956786352
 H        -6.3077403144        1.2282999055       -0.3771182457
 H        -5.1632029936        2.8619704153        3.4579630088
 H        -6.9274145388        2.8039889104        3.1831203675
 H        -5.7397658449        1.3393679123        3.3143319843
 Na       -1.0148108738        1.2535003059        1.4587249806
