155

 C         3.6118935175       -5.7654316885       -7.2817463012
 C         3.7114250242       -6.6254672361       -6.0340039656
 C         2.4122517772       -7.1119240528       -5.2549877625
 C         1.3347007307       -5.9883822541       -5.3534898324
 C         1.5524815240       -4.7954662172       -4.4421828006
 C         1.9380719101       -8.2698055969       -6.0998998263
 C         2.6963389716       -7.4803794521       -3.8205526599
 O         4.8175932020       -6.9434764981       -5.6336995024
 O         0.6437750099       -6.0335237248       -6.3415959056
 C         0.7412360823       -3.4507987416       -4.9331894021
 C         1.7466409474       -2.5829453323       -5.8016852821
 C         1.1750379072       -1.1763372509       -6.3636752494
 C         0.3372549239       -0.2778586812       -5.4609031011
 C         0.2196199392        1.2155447356       -5.8485509249
 O         2.9075633186       -3.0205416296       -5.9345205338
 O        -0.2938182061       -0.6648136997       -4.5044285041
 C         2.5199193028       -0.3733466429       -6.9646277926
 C         0.1773897252       -1.5706794318       -7.6617129225
 C        -0.6913607826        1.9273376308       -4.9186201899
 C         0.0778631650        2.5428908025       -3.7516549815
 C        -0.6665798065        3.4228147412       -2.7124945121
 C        -0.4181950134        2.8504499339       -1.3235019549
 C         1.0534658760        2.7707690226       -0.8736992147
 C        -0.0365957175        4.8394143973       -2.8671942701
 C        -2.2285602520        3.4998633566       -2.9525199878
 O         1.3013774866        2.4234389254       -3.6842569023
 O        -1.3557895085        2.3140121332       -0.7280275105
 C         1.7750798278        1.3826009615       -0.9011535181
 C         2.5430225067        1.1211484810        0.4359451675
 C         3.7602161234       -0.0168199482        0.5043544116
 C         3.1041921231       -1.3764128637        0.6909419157
 C         2.4992083197       -1.7664111454        2.1587160938
 O         2.3194119287        1.7583374735        1.4170892938
 O         3.3270847518       -2.2108987555       -0.1206961322
 C         4.5824667978        0.2234474408       -0.7242439368
 C         4.5637509746        0.3285436659        1.7563755024
 C         1.4443553492       -2.7910571670        1.9601298821
 C         0.0820688800       -1.9170230105        1.5629639422
 C        -1.4050349686       -2.5723008366        1.6323223234
 C        -1.9237957176       -1.8801545577        2.8697552649
 C        -2.2801450529       -2.7971908816        4.0621046547
 C        -2.2634973267       -2.1906273185        0.2991599439
 C        -1.2452517431       -4.0718500734        1.8541865635
 O         0.1024929681       -0.7287041489        1.3849219605
 O        -2.2537647321       -0.6908145900        2.9188467760
 C        -2.8613675373       -1.9035673563        5.1845196608
 C        -1.8167062567       -1.0195668906        5.9349050043
 C        -2.2685023410        0.3571681356        6.7509387950
 C        -1.4248660924        1.5190981758        6.1299411620
 C         0.1524504944        1.3073649857        5.8631892548
 O        -0.6466812720       -1.3673563861        5.9432926619
 O        -1.9609203083        2.4553920732        5.6004671120
 C        -3.7859096770        0.4981229714        6.7856271729
 C        -1.8044157102        0.2461669561        8.2967423472
 C         0.7436664938        2.5565574976        5.3559896309
 C        -0.0209111586        2.9166255482        4.0610506497
 C        -0.3147290667        4.3530399168        3.6121476103
 C        -1.4276148869        4.3089279278        2.4952848324
 C        -2.8944736210        4.1931459280        3.0150475169
 C        -0.4999969935        5.5280503754        4.6534703378
 C         1.0936661526        4.6568988476        2.8953329856
 O        -0.3303113884        1.9484802760        3.4401180691
 O        -1.0881988068        4.0927116423        1.3325581989
 C        -3.8635229201        4.1780175630        1.8664643883
 C        -4.5480082167        2.7117670522        1.7345729822
 C        -6.1113336255        2.5762307912        1.2503563988
 C        -6.8120279691        3.6588594711        0.4596607770
 C        -8.2003879941        3.2570708847        0.1020351506
 O        -3.8795415036        1.6945106058        1.7783780175
 O        -6.4000735587        4.7922681196        0.2392541960
 C        -6.1480119490        1.3075845104        0.3926367397
 C        -6.7326296848        2.5377037308        2.6314830017
 H         3.2503777045       -6.4376770908       -8.0676217898
 H         2.8135337285       -5.0021090617       -7.1583465411
 H         4.5334895809       -5.2942967382       -7.6116255246
 H         1.1880768470       -5.1325220260       -3.4309238201
 H         2.6014966360       -4.6758915925       -4.3941090522
 H         1.3183448572       -8.8636221012       -5.3733086214
 H         2.7283482221       -8.8547088986       -6.5535672662
 H         1.2678102072       -7.8520084299       -6.8723348528
 H         3.5110765741       -6.9047550371       -3.3794636893
 H         1.8031864525       -7.3774776385       -3.2261517025
 H         2.9629317856       -8.5190832462       -3.8251665243
 H        -0.0347574011       -3.8316092474       -5.5258801088
 H         0.3658635829       -2.7491839860       -4.2021705107
 H         1.2312319714        1.6349392172       -5.8928511764
 H        -0.0113029605        1.4894068819       -6.8493539957
 H         3.0589706574       -1.1497721923       -7.4204257393
 H         3.1492401891        0.1201804958       -6.1591718284
 H         2.2486672867        0.4146753609       -7.6528441042
 H         0.1275143245       -0.7217268642       -8.3025067441
 H         0.5953069317       -2.3748837005       -8.3397123749
 H        -0.8552525462       -1.7324806648       -7.3431080489
 H        -1.5023473385        1.1884862648       -4.7397004281
 H        -1.0998595020        2.8785501440       -5.4086355859
 H         1.6346545213        3.4498055688       -1.5019901296
 H         1.0300412784        3.1972771588        0.1682502996
 H        -0.1548759468        5.4845832605       -1.9528562694
 H        -0.4689760670        5.3150304789       -3.7776469969
 H         0.9990596533        4.7204665679       -2.8882513094
 H        -2.5249705615        4.1174773265       -3.8368339366
 H        -2.6752792167        2.5275654892       -3.0136095916
 H        -2.7717053001        4.0316562082       -2.1903251984
 H         1.0022519825        0.6697957286       -1.0247333058
 H         2.2936489247        1.2069287297       -1.8796172120
 H         3.3058032791       -2.1060386379        2.8220988294
 H         2.0834192138       -0.9306799690        2.7809672164
 H         5.4967756599       -0.4502722823       -0.7114165517
 H         4.6979171270        1.2797456322       -0.9752334769
 H         3.9065162209       -0.1774545328       -1.5381756287
 H         5.3456060953        0.9785858035        1.3189964428
 H         3.9825297624        0.9290141207        2.4595187572
 H         4.9742458966       -0.5661627619        2.2257782292
 H         1.2440467193       -3.2928460550        2.9067981578
 H         1.6463703538       -3.5999428334        1.2954817328
 H        -2.9793722919       -3.6096918703        3.7285281626
 H        -1.3868851966       -3.2320947625        4.3683937188
 H        -2.1689882137       -3.0030626234       -0.4941485091
 H        -1.8485644323       -1.2631781692       -0.1078432283
 H        -3.3414400746       -2.0736199109        0.5644469626
 H        -2.2581399315       -4.4985860287        1.8834321968
 H        -0.7860729853       -4.5650336626        0.9995633073
 H        -0.6649374283       -4.4437826121        2.7944907569
 H        -3.5786779636       -1.2089647656        4.8004873425
 H        -3.3959119118       -2.6296806138        5.8845827053
 H         0.6707856063        0.9642702792        6.7817667927
 H         0.1762000174        0.5077607017        5.1843103321
 H        -4.1464208983        0.4332195922        5.7855587201
 H        -3.9438994616        1.6528412055        6.8882771294
 H        -4.3147523927       -0.0154218340        7.5709288968
 H        -0.7986895253        0.0056443619        8.2706595339
 H        -1.9994357569        1.2215860639        8.8786627704
 H        -2.3791247203       -0.5853672527        8.7416564242
 H         1.7995485232        2.3373734514        5.1834541100
 H         0.7068962948        3.4752702359        5.9661048466
 H        -2.9799564328        3.2735960307        3.6026256880
 H        -3.0323147193        5.0065377712        3.7680301710
 H        -0.4090217229        6.5054960779        4.1506544661
 H         0.2313232792        5.6747964827        5.4587633552
 H        -1.4722551805        5.6219757321        5.1418832519
 H         1.8700508120        4.6052618341        3.6621072579
 H         1.2978907318        3.9669887193        2.0014315770
 H         1.0107749652        5.6589103050        2.4177133009
 H        -4.7168677357        4.8970597892        2.1138856135
 H        -3.4599879426        4.6106730030        0.9234499415
 H        -8.9375783362        4.0895538087        0.3908866539
 H        -8.3042126540        3.0736828388       -0.9545168026
 H        -8.6214733651        2.3410952250        0.6357067993
 H        -7.1229668582        0.8964607006        0.1130169279
 H        -5.5755410258        0.5024182224        0.7613347864
 H        -5.6812921338        1.4517690586       -0.6524297837
 H        -6.7875616930        3.5435381771        3.1727491434
 H        -7.7475490041        2.1620769739        2.4746854350
 H        -6.4029947181        1.7050337014        3.1857454417
 Na       -1.4536059828        1.2531056822        1.4664426381
