155

 C         5.5042168619       -7.7675382366       -5.5449246343
 C         4.0586719477       -7.4378261271       -5.6581957055
 C         3.5155008024       -6.9194625138       -7.0284302001
 C         3.2801767403       -5.3127262758       -6.8173150750
 C         2.8757561431       -4.7614766549       -5.3900827387
 C         4.4289203434       -7.0111110777       -8.2660323188
 C         2.0405127185       -7.5983484307       -7.2669552836
 O         3.2533185316       -7.4791597167       -4.7227462950
 O         3.4311107042       -4.6406295310       -7.8407703446
 C         2.5850317915       -3.2840704963       -5.3801822647
 C         3.7882907504       -2.3059587465       -5.2568696225
 C         3.5241382605       -0.7064038814       -5.1084335633
 C         2.1651147442       -0.4432377977       -4.5707357055
 C         0.9155749670       -0.0412489745       -5.5552788876
 O         4.8946907140       -2.7644440720       -5.3963298205
 O         1.9337967670       -0.6309573457       -3.4139275128
 C         4.5601882577       -0.0704932128       -4.0878533486
 C         3.5770226104       -0.0899814621       -6.4603768805
 C        -0.3883941238        0.3631476141       -4.7128608790
 C        -0.1727108896        1.6314387996       -3.8194818199
 C        -1.4387089087        2.0526575805       -2.8672757807
 C        -1.2488754196        1.8382332289       -1.2642306427
 C        -0.0270381996        2.6273665804       -0.6549478843
 C        -1.4474062711        3.6118772142       -2.9922846154
 C        -2.8503520593        1.6978403426       -3.3148846260
 O         0.8609355725        2.2540374060       -3.7063062070
 O        -1.9346942611        1.0404119736       -0.6699274690
 C         1.2686867126        1.8509886263       -0.7312508563
 C         2.2183867047        2.3391499400        0.3896177785
 C         3.5384400285        1.4208528976        0.6937359012
 C         2.8404106731        0.0688605512        0.9471988720
 C         2.3330592088       -0.2604355679        2.3850341187
 O         1.9481603615        3.2945986648        1.0606852647
 O         2.7147826043       -0.7308052231        0.0495240820
 C         4.4637814470        1.3953288597       -0.6011020551
 C         4.2457788814        2.0050816187        1.9018356683
 C         1.1505971378       -1.3149386650        2.3651075638
 C        -0.2094625759       -0.8140785908        1.8406265617
 C        -1.4770683768       -1.8548212060        1.8100798749
 C        -2.4381614498       -1.4634249025        2.9693896217
 C        -2.8669317062       -2.5311084617        3.9836864087
 C        -2.0685674642       -1.8239696618        0.3712766745
 C        -0.8607724405       -3.3346891692        1.8794494524
 O        -0.2826779889        0.3341767128        1.4978138941
 O        -2.8685049620       -0.3590438092        3.0844881775
 C        -2.8797036143       -2.1939949687        5.4271789619
 C        -1.4321121631       -1.8193770172        5.7627612649
 C        -1.1812510781       -1.3225873589        7.3278297521
 C        -1.7523235272        0.1386897832        7.2779838281
 C        -1.0266085588        1.2193325594        6.5406614538
 O        -0.5833991827       -1.6943537903        4.9081639999
 O        -2.8472574844        0.4195617738        7.7427150010
 C        -1.9048594352       -2.1757608383        8.4492495058
 C         0.3053492318       -1.3241292888        7.5746647256
 C        -1.9519659800        2.4535216247        6.3279354757
 C        -2.0659380697        2.9556483080        4.8510646611
 C        -2.4105279069        4.4488672660        4.4714257341
 C        -2.9497086391        4.3893826925        3.0152377084
 C        -4.5005143257        4.3219461889        2.8573990707
 C        -3.2828046962        5.1889973412        5.4966184119
 C        -1.0581385484        5.1936095283        4.3701881628
 O        -1.9128379380        2.1662484894        3.9508131675
 O        -2.1839607848        4.3228550139        2.0468840938
 C        -4.8925757597        4.2269860110        1.3115231401
 C        -5.2005801090        2.8331672903        0.7813826735
 C        -6.4974746359        2.4983673818       -0.0299588822
 C        -6.4439026440        3.1393673174       -1.5550239478
 C        -7.7147163840        3.3843074388       -2.4124951871
 O        -4.4068495465        1.9630694433        0.9550638498
 O        -5.3798696028        3.3930938940       -2.0963510651
 C        -6.4954260248        0.8818012680       -0.1837581812
 C        -7.7004411808        3.0649496794        0.6012115573
 H         5.9077377337       -7.0103201683       -4.9139684784
 H         5.7209764229       -8.7112951760       -5.1048890713
 H         6.1225171090       -7.6368575109       -6.5111724265
 H         1.9949726001       -5.3155284743       -5.1854651962
 H         3.7106302846       -5.0519848189       -4.6725046935
 H         3.7787120911       -6.9208482008       -9.1647001594
 H         4.8571022491       -8.0158775697       -8.4960175492
 H         5.2713980596       -6.3375468934       -8.2196873293
 H         1.6315774181       -7.1904053528       -8.2283343598
 H         2.1108840472       -8.6772831142       -7.3509358644
 H         1.2253447933       -7.4887839357       -6.5284845198
 H         1.7799640744       -2.8796592825       -6.1185500941
 H         2.0812803123       -3.0755869297       -4.4408807723
 H         1.1324141236        0.8129445966       -6.2386377718
 H         0.5693825535       -0.9326363204       -6.1152095968
 H         4.8216071986        0.9131646199       -4.4252454001
 H         5.4808922927       -0.7103711698       -4.0739808816
 H         4.0654116624       -0.1255708679       -3.1166097138
 H         3.6031792226        0.9856131049       -6.4918993999
 H         4.5966762294       -0.2522821788       -6.8905687805
 H         2.9484643023       -0.5135778189       -7.2237787738
 H        -0.6593799657       -0.4938904891       -4.1511081463
 H        -1.1244817489        0.7805358829       -5.4775513806
 H         0.0085545834        3.6009957117       -1.1504279092
 H        -0.2587612787        2.9795850021        0.3427190936
 H        -2.2435854515        4.1318921009       -2.3606518164
 H        -1.6179683475        3.8740981866       -4.0239787816
 H        -0.4586843987        3.9957426396       -2.6636134463
 H        -2.8673621318        1.6126412387       -4.4356110843
 H        -3.2285478554        0.8455602922       -2.7849116468
 H        -3.4790746763        2.4529324029       -2.8886597882
 H         1.0963053410        0.7356239908       -0.4759731932
 H         1.7877871285        1.9570576193       -1.6873999439
 H         3.1761639015       -0.5886694010        2.9871407369
 H         1.8412997183        0.5373459744        2.7812840528
 H         5.3447106581        0.8444558093       -0.3371461442
 H         4.6874267038        2.3921931364       -0.8741901158
 H         4.0671897954        0.9624751999       -1.4840367014
 H         4.2486722864        1.4062225969        2.8290829305
 H         5.2583100821        2.2585735357        1.6443267887
 H         3.8925257002        3.0023995710        2.1824961391
 H         0.9976385578       -1.8263469933        3.2798669539
 H         1.6675157940       -1.9929379327        1.6443640321
 H        -3.8507276906       -2.9577124080        3.7265956574
 H        -2.1040675831       -3.3478025621        3.8918301622
 H        -1.3011807578       -1.5579999115       -0.3722570622
 H        -2.9010061890       -1.1291822903        0.2965628383
 H        -2.4251227707       -2.8379409878        0.1616131598
 H        -1.6780619446       -4.0137298154        1.6474550971
 H        -0.1091380970       -3.4556156953        1.1121748590
 H        -0.4510801209       -3.6262437421        2.8771991275
 H        -3.5130470705       -1.3103802064        5.5876334858
 H        -3.2656570130       -2.9527304171        5.9782990649
 H        -0.1439708664        1.4208717903        7.1188238388
 H        -0.6810157279        0.8420482147        5.5970014705
 H        -3.0279666653       -2.1972758173        8.4650371160
 H        -1.6468731098       -1.7091745532        9.3946902757
 H        -1.4794590508       -3.1766951542        8.5444368655
 H         0.6822400126       -2.4106902821        7.4943807894
 H         0.8210565068       -0.7814413706        6.8207719551
 H         0.5754690003       -0.9931708514        8.5304913431
 H        -1.4551630061        3.1961548762        6.9300559441
 H        -2.9075016772        2.2171524481        6.7911222755
 H        -4.9622843623        3.5772831111        3.4654761418
 H        -4.8992399238        5.3100977977        3.1779920699
 H        -3.6593904716        6.1344642981        5.1248824242
 H        -2.6229098799        5.2689341294        6.3767737650
 H        -4.1541516635        4.5790116422        5.6060421762
 H        -1.1434432520        5.9947932735        3.6432535559
 H        -0.7781620961        5.6433091269        5.2586354253
 H        -0.2494247630        4.5388682111        4.1279905846
 H        -5.7264251397        4.8950228252        1.1545496215
 H        -4.1394296433        4.7162960382        0.7019915428
 H        -7.4696403210        3.6502732843       -3.4220845373
 H        -8.2523624570        2.4064785085       -2.2847419320
 H        -8.3801411051        4.1684359216       -1.9448308113
 H        -7.4549049294        0.6609288302       -0.6719241624
 H        -6.2854261796        0.4013599817        0.7240485399
 H        -5.6642605477        0.7551228239       -0.8915769834
 H        -7.8501438265        2.4341004237        1.5368584905
 H        -7.7394211646        4.0917464702        0.9959256890
 H        -8.5090576308        2.9796699596       -0.0753088832
 Na       -2.1290708654        1.6630497249        1.5754943424
