155

 C         5.4279051268       -6.4401477905       -4.8151405994
 C         4.1319881114       -7.0031674671       -5.4944739665
 C         3.9260880976       -6.6951957350       -7.0393026193
 C         3.8433446005       -5.1074104777       -7.2165735000
 C         2.8904287166       -4.3745723104       -6.1401287304
 C         5.0259334858       -7.3002504970       -7.7862305683
 C         2.5963828772       -7.2346769499       -7.5531858709
 O         3.2534769090       -7.4087190886       -4.7753718894
 O         4.3068127303       -4.5918860188       -8.2213320832
 C         2.5924850338       -2.8628034408       -6.2319764478
 C         3.7091594694       -1.9708219121       -5.8129444321
 C         3.4619585982       -0.6920303452       -4.6244937174
 C         1.9135570305       -0.5701285839       -4.2127445739
 C         1.0961937558        0.2383517476       -5.3116815360
 O         4.7826745374       -1.9907541572       -6.3243168361
 O         1.4799046499       -1.0386991562       -3.1703566978
 C         4.2323474181       -1.0422141226       -3.3312939571
 C         4.0502596127        0.6085368433       -5.1865267517
 C        -0.3014191639        0.4637946604       -4.9184991471
 C        -0.3203139598        1.7154954616       -3.9205171964
 C        -1.5285236926        2.0427738333       -2.9165694384
 C        -1.1603194378        2.0714954623       -1.4020849283
 C         0.1934446073        2.7052853814       -1.0302903295
 C        -2.0366854729        3.5133498406       -3.2391553820
 C        -2.6474960781        0.9904391470       -3.1013724030
 O         0.6073556379        2.4851920885       -3.9797809779
 O        -2.0621951061        1.7878290052       -0.6222240320
 C         1.0963749378        1.6879990386       -0.2351367364
 C         2.1065538163        2.3653038234        0.7130225040
 C         3.4323973593        1.6259313597        0.9919170262
 C         3.0565499465        0.0452178022        1.2779453510
 C         2.5025112684       -0.3112301817        2.6739945929
 O         1.9125569517        3.4228199828        1.2610624764
 O         3.2447135122       -0.8150356486        0.4825838776
 C         4.3243453653        1.5813906084       -0.2446566853
 C         4.1316137573        2.2046198583        2.2198463183
 C         1.4299608105       -1.4547046879        2.6630855514
 C        -0.0227247012       -1.1201290840        2.4004294076
 C        -0.8947392769       -2.2595966471        1.9201753039
 C        -2.2153988845       -2.0293947074        2.7307893947
 C        -2.3965332190       -3.0128307382        3.9665682700
 C        -1.0849938775       -1.9764774356        0.3834138657
 C        -0.3019908467       -3.7323638519        1.9799125174
 O        -0.3978388795        0.0486149992        2.2805843075
 O        -3.0262086228       -1.1385609364        2.5122992635
 C        -2.6383075363       -2.1952414099        5.2386268733
 C        -1.2719419736       -1.4960078943        5.8062559070
 C        -1.3307184143       -1.0507776310        7.2951910790
 C        -2.2488971746        0.3218369763        7.0439342834
 C        -1.3194785453        1.6252326557        6.9137374307
 O        -0.2351662366       -1.4991369554        5.1202694820
 O        -3.4409812231        0.2737143079        6.9774829402
 C        -1.9946256556       -2.0044884754        8.2367920974
 C         0.0666833410       -0.6404908670        7.9421657296
 C        -2.1985790025        2.7994821424        6.3969196488
 C        -2.5023217595        2.7777442254        4.9095294108
 C        -3.1251186185        4.0318461967        4.3300876248
 C        -3.0261788873        3.9422022463        2.6386295650
 C        -4.1582095793        4.5743294192        1.8509601765
 C        -4.6475641714        4.1888795776        4.8831490967
 C        -2.2799028327        5.2230166011        4.6725811341
 O        -2.2172761771        1.8186596148        4.1911277477
 O        -2.0290227217        3.4430169193        2.0746120524
 C        -4.3489604135        4.0132734543        0.4959596726
 C        -5.1081418562        2.6239627726        0.4915377317
 C        -6.4607522196        2.5939493498       -0.3384707286
 C        -6.2301917108        3.2556257589       -1.7907221207
 C        -7.4095560619        3.3023790464       -2.7854925130
 O        -4.7907250183        1.7120794551        1.1981972226
 O        -5.0883245251        3.6091953402       -2.0308237183
 C        -6.9870027952        1.1055235871       -0.5681299799
 C        -7.5236523779        3.3885869023        0.3859095539
 H         6.0280195755       -5.8039627703       -5.4237343469
 H         5.1606594147       -5.8231400056       -4.0089600529
 H         6.0746235652       -7.2809582105       -4.4186817538
 H         1.8751832717       -4.9160908914       -6.2447453186
 H         3.2587601983       -4.6772675636       -5.1881834340
 H         4.6509048347       -7.3098992245       -8.8567370091
 H         5.1053530823       -8.3092377565       -7.4290939464
 H         5.9912870483       -6.8206073868       -7.7715890913
 H         2.4074198360       -7.0312751354       -8.6347747142
 H         2.5176989542       -8.3013497244       -7.5162636181
 H         1.7398419820       -6.8248970489       -6.9932543626
 H         2.4607651322       -2.6441806544       -7.3264862494
 H         1.6592272194       -2.6879712799       -5.6653473869
 H         1.7217399196        1.0750739870       -5.6203157235
 H         1.1580909996       -0.4029190847       -6.2726998094
 H         4.3124923925       -0.1366296344       -2.6932785044
 H         5.2421598907       -1.4437437332       -3.6199341808
 H         3.6158708587       -1.8215889686       -2.7749026699
 H         3.8601808741        1.5502186674       -4.6050238117
 H         5.1973166501        0.4617776234       -5.2020671132
 H         3.8310728079        0.7871993011       -6.2578508095
 H        -0.6000914683       -0.4521182519       -4.3020687024
 H        -1.0200055957        0.4583085906       -5.6994266180
 H         0.6138455900        2.9991463317       -1.9617838559
 H        -0.1683900135        3.5462802938       -0.3951287760
 H        -2.9626152272        3.8030227806       -2.6492188732
 H        -2.3758348695        3.5890830525       -4.2726885950
 H        -1.2638660878        4.2802263132       -3.0546197757
 H        -3.0118585334        0.9609062966       -4.1348589578
 H        -2.3422327934       -0.0433279566       -2.8104026024
 H        -3.5720728266        1.2467319068       -2.5711756397
 H         0.4402778698        1.0682775746        0.3497127520
 H         1.6837821052        1.0422298800       -0.8993085339
 H         3.4609612799       -0.5303539785        3.2342879185
 H         2.0996906282        0.4924953564        3.3238820644
 H         5.2955520139        1.3051988655        0.0020473603
 H         4.4792358839        2.5350736704       -0.6256672950
 H         3.9152808979        0.9721532274       -0.9718651762
 H         4.5941571482        1.5019770812        2.9627458071
 H         4.8897237618        2.9858566122        1.9990316101
 H         3.3016690370        2.7578049092        2.6965138255
 H         1.5119346048       -2.0630706129        3.5967602216
 H         1.8136322882       -2.1811717576        1.8905697628
 H        -3.2891333677       -3.6501049292        3.7843349620
 H        -1.5309885587       -3.7066482608        4.1011467952
 H        -0.1946304487       -1.4384306327       -0.0073694727
 H        -1.9076371764       -1.3155564994        0.2414748602
 H        -1.2657989925       -2.8297230763       -0.3046131138
 H        -1.1332094094       -4.3432488646        1.9004959529
 H         0.1958326328       -3.9687850254        1.0562246322
 H         0.2935051859       -4.0490243697        2.8898571460
 H        -3.3700878091       -1.4553385623        5.0508955019
 H        -3.0747074390       -2.8375346247        6.0093021564
 H        -0.9438164587        1.8144824329        7.9091381274
 H        -0.4614744400        1.4151566352        6.3398198756
 H        -3.0442628985       -2.1751113167        8.0776762165
 H        -1.9215133457       -1.4466650195        9.1925126493
 H        -1.5786228656       -2.9985969629        8.2183737212
 H         0.4223270994       -1.5034551596        8.5334476436
 H         0.8675804268       -0.4368083274        7.2641312988
 H         0.0209625917        0.1672469935        8.6020798483
 H        -1.6926744017        3.6973035433        6.7670775952
 H        -3.1670854069        2.6673466322        6.8462526620
 H        -5.0470015132        4.5074774346        2.4563400681
 H        -3.9347324620        5.6365142821        1.7685412383
 H        -4.9993464953        5.1272025761        4.5126249640
 H        -4.6354136976        4.4509807719        5.9288493874
 H        -5.3307287484        3.3236024817        4.7234033871
 H        -1.4030910096        5.2067413463        4.0567875253
 H        -2.7543795088        6.1531425249        4.3070121859
 H        -2.0073497007        5.3265829659        5.7072245077
 H        -5.1134257997        4.6645540913        0.0038889632
 H        -3.4188236258        3.8278390772        0.0164432497
 H        -7.3870756917        2.5373596603       -3.5368557170
 H        -8.3546658438        3.3353794036       -2.2243312863
 H        -7.2136916357        4.3229514139       -3.1967628397
 H        -7.8782466481        1.1735235984       -1.1871078565
 H        -7.2798249173        0.8290114530        0.3688583486
 H        -6.1844738051        0.5576821550       -1.1097896122
 H        -8.4949958000        3.2680598165       -0.2507705925
 H        -7.8764133541        2.7937792329        1.2714837840
 H        -7.4151913178        4.4293955991        0.6297713056
 Na       -2.5230560995        1.0776832726        1.8892196821
