155

 C         5.4304128152       -6.4015868841       -4.7440078655
 C         4.2073028939       -6.8473310621       -5.4359606581
 C         3.9185729042       -6.5249542749       -6.9860576447
 C         3.8636023977       -4.9782870628       -7.2522041195
 C         3.0393611067       -4.2877819014       -6.0892191203
 C         5.1614724661       -7.0396219756       -7.6967957143
 C         2.6651881700       -7.3478454401       -7.3732491457
 O         3.3149595779       -7.4708603306       -4.8391024192
 O         4.2192200346       -4.3827517452       -8.2580257985
 C         2.7261739983       -2.8379271608       -6.4714271834
 C         3.7812945481       -1.9099939104       -5.7931192958
 C         3.3939433697       -0.8707086119       -4.6331006166
 C         1.8974316850       -0.5940041272       -4.3578252204
 C         0.9833913667        0.2025306215       -5.4918302811
 O         4.8902141407       -1.9220119766       -6.2462126761
 O         1.4251453797       -0.9970919961       -3.3196530862
 C         4.1142220296       -1.5995570845       -3.4151549882
 C         4.0836732149        0.4711399932       -5.0297248773
 C        -0.3492153175        0.6723181597       -4.7455196967
 C        -0.3217621906        1.8476724462       -3.8273688345
 C        -1.4786651501        2.0471658247       -2.7201114929
 C        -1.1548184180        1.9868580944       -1.2673577996
 C         0.0391467109        2.7665117956       -0.5794514968
 C        -2.0967720943        3.3967272126       -3.1195433199
 C        -2.6366309446        1.0070271525       -3.0490040443
 O         0.3407311690        2.8186652619       -4.0774508461
 O        -1.9532708298        1.4369043932       -0.5039929853
 C         1.1398281827        1.7640846912       -0.2480780807
 C         2.1197602223        2.3193333503        0.9034091852
 C         3.5011842470        1.6631770516        1.0925461488
 C         3.0226916477        0.1816654578        1.4085567611
 C         2.2887394639       -0.0217349416        2.7425214830
 O         1.8542733780        3.3549480293        1.4510626038
 O         3.0340751446       -0.6697581622        0.5491713958
 C         4.3819771560        1.6987527055       -0.1709495244
 C         4.3273706888        2.1112055687        2.2605109368
 C         1.4892534776       -1.3823355090        2.6583074572
 C         0.1259584805       -1.0548493715        2.3367296021
 C        -0.7612839719       -2.2751025658        1.8377445370
 C        -2.1957191855       -2.0790203673        2.7367191993
 C        -2.4724735870       -3.0171088070        3.8647110310
 C        -1.1604823700       -2.0547524172        0.3163525208
 C        -0.1606001078       -3.6580892668        2.1712280728
 O        -0.2969215454        0.0776230597        2.3851004752
 O        -2.9512185241       -1.2008901667        2.3952961012
 C        -2.5123816579       -2.2296751567        5.2093331181
 C        -1.1907746422       -1.6976946736        5.8232870130
 C        -1.3774523150       -1.0935302542        7.2842631856
 C        -2.2242602295        0.2875982285        6.9833541689
 C        -1.4088903745        1.6882617884        6.8988434562
 O        -0.1248011386       -1.5529430747        5.2617384155
 O        -3.4518583631        0.2426377898        6.9177176213
 C        -2.2820202540       -2.0758144049        8.1055612044
 C         0.0741158292       -0.7619519445        7.8112317124
 C        -2.3420536269        2.8205146223        6.4285352482
 C        -2.4636894642        2.7992929826        4.9376401882
 C        -3.0905542752        4.0631957060        4.2949981928
 C        -2.9650633992        3.9590966214        2.6751328146
 C        -4.0827597615        4.5847216535        1.7011244501
 C        -4.6172039930        4.0050194631        4.6342578069
 C        -2.5100508399        5.4697432745        4.6477923382
 O        -2.2431935696        1.7939548609        4.3246913319
 O        -2.0271408155        3.4568459347        2.2066840281
 C        -4.2218907226        3.8508793627        0.3531720493
 C        -5.0782276541        2.6079890034        0.3075919657
 C        -6.4301368764        2.5514650544       -0.4603006223
 C        -6.2219961043        3.1071642001       -1.9824071250
 C        -7.5415180777        3.3412700644       -2.9059208370
 O        -4.7948008130        1.6330645113        1.0307857356
 O        -5.1414435443        3.4283147367       -2.3955108142
 C        -6.8392948293        1.0212917682       -0.4783115450
 C        -7.5275239426        3.4933359097        0.2204180210
 H         5.9519604304       -5.5227502276       -5.2506168233
 H         5.0499507398       -6.0916868440       -3.7059215509
 H         6.1526094478       -7.1487633149       -4.6371464758
 H         2.1688441460       -4.8397313986       -5.9252966329
 H         3.6002567348       -4.3453514929       -5.1036193808
 H         5.1863715276       -6.5724833234       -8.6776440639
 H         5.2477589682       -8.1628658555       -7.7951442658
 H         6.0489476671       -6.6342802672       -7.0831350744
 H         2.4571677555       -7.2207092037       -8.4227471851
 H         2.9122817210       -8.4536294666       -7.3144016009
 H         1.7133495180       -7.1738470644       -6.8794806647
 H         2.7959184283       -2.7096604269       -7.5068322605
 H         1.7382628492       -2.6501426872       -6.0725851442
 H         1.5164162366        1.0782224735       -5.9287626123
 H         1.0098360338       -0.4912492195       -6.2940328943
 H         3.9445229160       -1.1444449453       -2.4301798974
 H         5.1209636595       -1.4470056876       -3.7294555596
 H         3.9977988058       -2.6623392532       -3.4997003315
 H         3.7124063160        1.3009694370       -4.4462224160
 H         5.1050780715        0.4430290159       -4.8674120050
 H         4.0760188547        0.5640865636       -6.1395904178
 H        -0.8138210887       -0.0655503299       -4.1472497676
 H        -1.2099641892        0.9131147147       -5.4718508737
 H         0.4044777761        3.5298737867       -1.2972181510
 H        -0.4577147223        3.1993460389        0.2655179874
 H        -2.8762074077        3.6698988695       -2.5579120610
 H        -2.5308553440        3.2897804123       -4.1332853010
 H        -1.3909127724        4.2005503596       -3.0261028060
 H        -2.6680684581        0.7039787513       -4.0802597237
 H        -2.6612869147        0.1280156530       -2.4054150677
 H        -3.6480893813        1.4024095982       -2.9205679537
 H         0.7013480083        0.8304711999        0.1018924379
 H         1.6741586131        1.5285993294       -1.1845406826
 H         2.9518438974        0.0131736651        3.5911100802
 H         1.5685133963        0.7968050545        3.0305263234
 H         5.3998901657        1.2265336004       -0.0189066177
 H         4.6103076863        2.7639236954       -0.5925177693
 H         3.8111737058        1.1581840306       -1.0039257019
 H         4.9466328224        1.2575333814        2.4702383220
 H         4.9004525094        3.0279435331        2.0073069470
 H         3.7991200735        2.3620930551        3.1752041452
 H         1.6784429893       -1.9461735498        3.5715455627
 H         1.8881897072       -2.0416381243        1.8813575622
 H        -3.4719234796       -3.4246335753        3.7429130133
 H        -1.8048104641       -3.8499463783        3.8634270900
 H        -0.2627023318       -1.9352015816       -0.2926019726
 H        -1.7197241803       -1.1239944978        0.0400634186
 H        -1.7694762938       -2.8906662960        0.0043971905
 H        -0.6050866430       -4.6275856282        1.8161795851
 H         0.8163629540       -3.6771969377        1.6595058725
 H        -0.0014871708       -3.6265803918        3.2001643763
 H        -3.0977400195       -1.2434192362        5.2035872505
 H        -3.0827671784       -2.9026531968        5.8955384933
 H        -1.0664783041        1.8823639311        7.9461373290
 H        -0.4602752102        1.5997072151        6.2615209083
 H        -3.2940189815       -1.8234821936        7.7217638607
 H        -2.4277272586       -1.7891017399        9.1440084546
 H        -2.2015970085       -3.1758375936        7.8804119017
 H         0.8684788762       -1.4577528541        7.7245326109
 H         0.4915949289        0.2030680150        7.4289687740
 H        -0.1054076818       -0.4877911879        8.9157463277
 H        -1.9784214168        3.7246699404        6.9327654793
 H        -3.3831433808        2.5218871642        6.7890369428
 H        -5.0198761944        4.6659563216        2.2927406862
 H        -3.7738193615        5.6038674178        1.5106565700
 H        -5.1352137122        4.9670937854        4.4936177229
 H        -4.8157583733        3.7535700342        5.6716452445
 H        -5.1064653205        3.3158899320        3.9446742356
 H        -1.9652739651        5.8900902468        3.8091622361
 H        -3.2552107096        6.1982398973        4.9483918167
 H        -1.8424525321        5.3886388671        5.4867236367
 H        -4.6504439126        4.4571631440       -0.3973237543
 H        -3.2270859527        3.3535756928        0.1811061407
 H        -7.8916979884        2.2518618719       -2.9111674156
 H        -8.3196924616        3.7903839539       -2.2951224147
 H        -7.3921214126        3.7939249685       -3.8991626890
 H        -7.9170379490        1.0132902351       -0.5111203650
 H        -6.6119518818        0.7163787347        0.5947992231
 H        -6.4680785278        0.5374525902       -1.3704379356
 H        -8.3696916839        3.0354339059        0.5898742894
 H        -7.0750348182        4.0374905970        1.0598418545
 H        -7.8917190798        4.2882784468       -0.4852995574
 Na       -2.6260724653        1.0767580070        1.8818549695
