155

 C         6.3226941416       -5.8492750374       -4.8012027084
 C         4.9630189965       -6.3404300219       -5.4577919420
 C         4.6959715049       -6.1468739482       -6.9384797740
 C         3.8986902978       -4.7090178689       -7.3261932272
 C         2.5776061878       -4.3764181619       -6.4805690601
 C         6.0687665634       -5.9279301102       -7.7737044647
 C         3.9147045597       -7.2913183593       -7.4703893043
 O         4.0719540569       -6.6226141594       -4.6643649901
 O         4.3749954830       -3.9847894939       -8.1804069187
 C         2.2299817787       -2.8684650104       -6.4838184265
 C         3.3482690763       -2.0594655192       -5.7426065536
 C         3.3135006543       -1.6747782946       -4.1665264218
 C         2.1428442890       -0.5670783968       -3.8428066006
 C         1.8336689757        0.4992539245       -4.8466778586
 O         4.2636928144       -1.5934136197       -6.3250499747
 O         1.8026057965       -0.3563244908       -2.7044329285
 C         2.7554457875       -2.8380646696       -3.3314960912
 C         4.5465657060       -0.8497597120       -3.5399708177
 C         0.4616391009        1.1393066597       -4.6584756275
 C         0.3628917516        2.4479533191       -3.8760824345
 C        -1.0480834496        2.6259114988       -3.1233688650
 C        -0.9328174327        2.2590153905       -1.6212685031
 C         0.2408394099        2.8260884674       -0.8248777447
 C        -1.4568640218        4.0454868518       -3.2025732589
 C        -2.1577356876        1.7982042459       -3.8126833766
 O         1.2506396967        3.2785121634       -3.7752020777
 O        -1.8138583460        1.5788713184       -1.0774591202
 C         0.9132564715        1.7892617374        0.0049751193
 C         1.7402603931        2.6164753203        1.0178560988
 C         3.1725478592        2.0027163171        1.5164152634
 C         2.9067035723        0.5517642177        1.7893575680
 C         2.4868935924        0.1901165679        3.2716247117
 O         1.4123742270        3.6926538707        1.5280763914
 O         3.0170432446       -0.3058841675        0.9244724885
 C         4.1948714772        2.1653852182        0.2961887904
 C         3.8371200193        2.7974594726        2.7097094160
 C         1.6993230856       -1.2007087279        3.1603613276
 C         0.2948962418       -1.0690702814        2.4899347074
 C        -0.4050132394       -2.3233432869        2.0464992432
 C        -1.9878464934       -2.2555216264        2.6114358318
 C        -2.3154267458       -3.3620995239        3.7110103711
 C        -0.5923968490       -2.2442768030        0.5042503118
 C         0.2585312683       -3.6816280393        2.3216790848
 O        -0.2019024060        0.0378902047        2.4141369111
 O        -2.7197932779       -1.3503698064        2.3380184378
 C        -2.7884501199       -2.6141682523        5.0050153143
 C        -1.7378708775       -1.8993193772        5.8431993585
 C        -2.2039032277       -1.0756216980        7.2128503692
 C        -2.7607048561        0.2971805703        6.6215420510
 C        -1.6913060869        1.4489052609        6.5315474300
 O        -0.5586013585       -1.9061856433        5.5491766842
 O        -3.8507998723        0.3364859481        6.0506524280
 C        -3.2926695070       -1.9187339792        7.9049074450
 C        -1.0076739637       -0.8803368696        8.1458026780
 C        -2.0103025796        2.8095540019        5.9216442620
 C        -2.4672462210        2.6761341877        4.3758212134
 C        -3.6772299860        3.3680436756        3.8380171946
 C        -3.3033763527        3.7724535194        2.3420990925
 C        -4.3717939752        4.6200610434        1.6465004802
 C        -4.8114936568        2.2557248117        4.0417350789
 C        -3.8817496263        4.7406986132        4.6858114810
 O        -1.8528733948        1.8370547901        3.6754439337
 O        -2.2819600120        3.4658830718        1.7083458005
 C        -4.7948312277        3.9718190302        0.3078702658
 C        -5.3940080438        2.5977559606        0.4578751528
 C        -6.6706163502        2.1932859459       -0.3137545247
 C        -6.5020542217        2.4238278269       -1.9344101577
 C        -7.5291927608        1.7546796359       -2.8945622582
 O        -4.7083372893        1.7311730947        1.1026352481
 O        -5.6159538414        3.1253795501       -2.3083015159
 C        -6.7833303507        0.7002770119       -0.1612557699
 C        -7.9885184647        2.8402340646        0.1732725943
 H         6.4726536800       -4.8127617246       -5.1147558511
 H         6.3622863745       -5.7808249430       -3.7000344927
 H         7.1108714955       -6.4465587884       -5.0604459137
 H         1.7618054922       -4.9437651566       -6.9519375083
 H         2.8340320114       -4.7476441567       -5.4901397267
 H         5.9191902069       -5.5218115285       -8.7291304808
 H         6.5811306400       -6.8891705576       -7.7307420667
 H         6.6644132329       -5.3298700589       -7.0889661723
 H         3.7843963202       -7.1522005277       -8.5209357010
 H         4.4582321782       -8.2320837668       -7.3745228146
 H         2.9424223373       -7.3769617853       -7.0120161107
 H         1.9701164061       -2.4882807054       -7.4934067346
 H         1.3815082140       -2.7176458230       -5.8886330087
 H         2.6414254189        1.2020840934       -4.6480174484
 H         1.7136960594        0.0973291675       -5.8682600726
 H         2.5111143211       -2.6149268778       -2.2542345497
 H         3.4580133325       -3.7105483547       -3.3130015278
 H         1.8077034523       -3.2642975776       -3.7903492191
 H         4.1924760834       -0.1268969969       -2.7658584590
 H         5.2872325582       -1.5569050570       -3.2377055033
 H         4.8637979469       -0.1754911297       -4.4032864147
 H        -0.1616287946        0.4054539892       -4.0641339050
 H        -0.0214397556        1.3715492729       -5.5914579029
 H         1.0243051653        3.3701156283       -1.3831786142
 H        -0.1750037474        3.5967831923       -0.1991536400
 H        -2.3250498368        4.3380700446       -2.6933989512
 H        -1.6860279004        4.3718896557       -4.2592457761
 H        -0.6386526370        4.7245797911       -2.8972579217
 H        -2.2365637980        1.9058686229       -4.9129770804
 H        -2.1363895283        0.7403545624       -3.5792251984
 H        -3.1505636217        2.1759757551       -3.5719399012
 H         0.2582787972        1.1270630891        0.5487096808
 H         1.5473173969        1.1134390002       -0.4960169013
 H         3.4469711522        0.1715228918        3.7783085125
 H         1.7846557392        0.9014863833        3.6931876531
 H         5.1989052075        2.2399005571        0.4840979150
 H         3.8933641914        3.0953052448       -0.1076048715
 H         4.0271676897        1.4647185105       -0.4370967133
 H         4.7842807488        2.3017924100        3.0295926530
 H         4.0914494959        3.7621155346        2.2474780933
 H         3.0227643325        2.9627898720        3.4230290192
 H         1.4979707048       -1.7044171721        4.1261880950
 H         2.2219354441       -1.9949842427        2.5257519018
 H        -3.1592208209       -3.8887623951        3.3004226538
 H        -1.5434319773       -4.1254124725        3.8648618281
 H         0.3245539979       -2.3261746675       -0.0559188789
 H        -1.1748843666       -1.3806974124        0.1993339627
 H        -1.1006752460       -3.0779045174        0.0847430874
 H        -0.0522169953       -4.5920774477        1.7275662294
 H         1.2765710787       -3.5262584380        1.9820554669
 H         0.2381887028       -3.9948836996        3.2965416397
 H        -3.6436029939       -1.8440130833        4.7109113912
 H        -3.1630504091       -3.3976135106        5.6294683079
 H        -1.4292321988        1.5541202970        7.6300902105
 H        -0.8275641660        1.1908050580        5.9103155582
 H        -4.1541457396       -2.0219509413        7.2678433901
 H        -3.5680847464       -1.3128420559        8.7394524064
 H        -2.9538908453       -2.9662361096        7.9226089833
 H        -0.6940459676       -1.7874685166        8.5122782704
 H        -0.2211621241       -0.2962030809        7.6959468199
 H        -1.4637529718       -0.2174428859        8.9300347918
 H        -1.1163529045        3.5147654106        5.9651509671
 H        -2.7083383830        3.4043076981        6.4731464105
 H        -5.2474275804        4.6050817584        2.2076522019
 H        -4.0514382463        5.6834776488        1.4513938748
 H        -5.8152659618        2.4958389889        3.7138436560
 H        -5.0220738326        2.0832482184        5.1087914810
 H        -4.4664966307        1.3228718245        3.6579931958
 H        -3.2181769246        5.4612630541        4.2025776508
 H        -4.8595905532        5.1323811983        4.5353121366
 H        -3.7012269703        4.5535622009        5.7340906274
 H        -5.4018757433        4.6960151298       -0.2925782014
 H        -3.9543750848        3.9171646368       -0.3770293057
 H        -7.9958379545        0.7346064920       -2.7058011371
 H        -8.3406670742        2.4497572866       -3.0038193964
 H        -6.9143816508        1.6125244826       -3.8117305133
 H        -7.6540581427        0.3258333834       -0.6081829751
 H        -7.0163008416        0.4926086403        0.9340751908
 H        -5.9369606851        0.1671825124       -0.6750448673
 H        -8.1202042368        2.8634926732        1.2423157128
 H        -7.8238329442        3.8951009938       -0.1816697025
 H        -8.9447016749        2.3672716200       -0.2572748484
 Na       -2.1763222029        1.0828885872        1.3390336120
