155

 C         7.7568796599       -4.7188217635       -6.4822813814
 C         6.4148783991       -5.2159421029       -5.9872744612
 C         5.3343041103       -5.7407441134       -7.1094262546
 C         4.3165982243       -4.4164711714       -7.2664286773
 C         3.4123768610       -4.1366948060       -6.0111010529
 C         6.1506393640       -6.0435515205       -8.4042760104
 C         4.5436401602       -7.0144291767       -6.5993400954
 O         6.1400813073       -5.2423270442       -4.7830285295
 O         4.4643008199       -3.5987552378       -8.1624528114
 C         2.8125906909       -2.6790805181       -5.9313742976
 C         3.3701725478       -2.1198547756       -4.6289501113
 C         2.4268787467       -2.2100893725       -3.3516250990
 C         1.6161673846       -0.8653207784       -2.8676287555
 C         1.4548857202        0.2154000982       -3.9435946679
 O         4.4610932604       -1.6532506852       -4.5741622467
 O         1.3378341406       -0.6752890075       -1.7462232965
 C         1.4498066184       -3.3742799092       -3.4446056796
 C         3.4571930459       -2.3631180569       -2.1940969195
 C         0.3558031981        1.2473778607       -3.7347805378
 C         0.6078884415        2.6042855910       -3.2525799683
 C        -0.6797849442        3.5729153875       -2.6784979053
 C        -0.8211416400        3.0769375112       -1.1850033052
 C        -0.0107792621        3.5624812624       -0.0066961256
 C        -0.2505194956        5.0365064687       -2.7901145998
 C        -2.0135485088        3.3079241122       -3.3606694401
 O         1.6657678930        3.2171888017       -3.1775482336
 O        -1.4246475313        2.0103651982       -1.0725402540
 C         1.3491631155        2.7668349039        0.1644821344
 C         2.1063991356        3.0399115989        1.3730568665
 C         3.4880821431        2.4205351626        1.6306276947
 C         3.2710932455        0.8279254397        1.8639191239
 C         2.3093130289        0.2975680660        2.9368943265
 O         1.5791768563        3.6996257889        2.2546957479
 O         3.9789588244       -0.0316878656        1.3362359829
 C         4.4685585812        2.5299709410        0.3684271267
 C         4.0810685992        2.8869304204        3.0023136488
 C         1.6030835088       -1.0631269669        2.4891996118
 C         0.1394883250       -0.8166718304        1.9466195788
 C        -0.6005875105       -2.0267258401        1.4839987830
 C        -1.9428625298       -2.0061363346        2.3403644713
 C        -2.2457642129       -3.1891321404        3.2421614116
 C        -1.0080476502       -1.6437565507       -0.0165073576
 C         0.1489233664       -3.3628665333        1.4512497739
 O        -0.2611666843        0.3056393865        1.8858660066
 O        -2.7343242389       -1.1337458559        2.0776757281
 C        -3.0331647268       -2.7533185140        4.4781954220
 C        -2.2724562652       -1.8068204865        5.3758742450
 C        -3.0429989908       -1.2671852710        6.6656283633
 C        -3.2680832582        0.3963659467        6.6989595148
 C        -1.9749172131        1.2346570918        6.4819064284
 O        -1.1392405045       -1.4578243473        5.0824862241
 O        -4.3312140691        0.9071610909        6.8553082562
 C        -4.3732970063       -2.0112036766        6.8620125834
 C        -2.0872128511       -1.5453334723        7.9386237232
 C        -2.3178138583        2.5359768918        5.6799894413
 C        -2.6197653910        2.4492720744        4.1872995260
 C        -3.8467547056        3.3877189154        3.7057303228
 C        -3.8578370826        3.4259173654        2.1147962895
 C        -5.1675377435        3.5624001945        1.3099462894
 C        -5.0554182005        2.7754058017        4.4306125120
 C        -3.4178612855        4.8272791180        4.2183430999
 O        -2.0310620464        1.7867809989        3.3517279103
 O        -2.8103091032        3.5729382566        1.4537659833
 C        -5.1528660928        2.9898515049       -0.1905851952
 C        -5.3521164864        1.4487434311       -0.1083534925
 C        -6.6421899466        0.8299107675       -0.7782389066
 C        -6.5680433365        0.8751083236       -2.3883192443
 C        -7.7863864032        0.6346996368       -3.2567978280
 O        -4.6327506842        0.7795844893        0.5736494078
 O        -5.4927117068        1.2829347722       -2.7975739790
 C        -6.7316974183       -0.6347251023       -0.4516453728
 C        -7.8650520204        1.5407200322       -0.1478498052
 H         7.5610498567       -3.9889135140       -7.2071537046
 H         8.3444184479       -4.4510019980       -5.6321601567
 H         8.4251519746       -5.4579777360       -6.9894991191
 H         2.6324707978       -4.8236848876       -6.0150351120
 H         3.9985938279       -4.4334173140       -5.0789749960
 H         5.4177905497       -6.4698300321       -9.1429106176
 H         6.8254563466       -6.8561699802       -8.2381084927
 H         6.7477029429       -5.2744610730       -8.8556528336
 H         3.7910378148       -7.3358723007       -7.2618619067
 H         5.2796576168       -7.8197675420       -6.5657778475
 H         4.1783088741       -6.8402456706       -5.6217557880
 H         3.3879578703       -2.1434241517       -6.6281960910
 H         1.7592928958       -2.7139694680       -6.0448257459
 H         2.3752877485        0.8283922456       -4.0944868997
 H         1.4208418062       -0.1571701710       -4.9337098213
 H         0.9715266099       -3.5929501609       -2.4460824193
 H         1.8843587846       -4.3309013953       -3.8157111329
 H         0.5714364214       -3.0828083059       -4.0564340709
 H         3.1216065952       -1.7876103573       -1.3351402318
 H         3.5673374818       -3.4149881632       -1.8729610174
 H         4.4357161143       -1.9467924646       -2.3890471107
 H        -0.4944591477        0.8616723712       -3.1368851721
 H        -0.1171677651        1.5125290297       -4.7278265301
 H         0.2829882661        4.6162989995       -0.0339960016
 H        -0.5145034337        3.4045843144        0.9120595428
 H        -0.9388340063        5.6823098857       -2.2284459753
 H        -0.3627947573        5.3648497892       -3.7501358519
 H         0.7856512791        5.0904767916       -2.4197157067
 H        -1.8331508969        3.6597246775       -4.3577863922
 H        -2.2856603424        2.2188780378       -3.2919889379
 H        -2.8445361935        3.9099452591       -2.9144361763
 H         1.2424817541        1.6447629892        0.1637961994
 H         1.9233407553        3.0910788070       -0.7101506974
 H         2.8605103205        0.0665796124        3.8891953279
 H         1.5235118690        1.0615764479        3.2073152135
 H         5.0243903497        1.6746571769        0.3376782038
 H         5.1271942659        3.3277015074        0.5811464665
 H         4.0101670794        2.7260563423       -0.5459116494
 H         5.0962594943        2.5228691842        3.0499669440
 H         4.2728499897        3.9744813134        3.1296776834
 H         3.3495167332        2.6622049530        3.7623677380
 H         1.5014884133       -1.6681625545        3.3399844944
 H         2.0524720704       -1.5893122981        1.6423823143
 H        -2.8526377872       -3.8956153145        2.6938939557
 H        -1.2789155603       -3.6135819217        3.4858110623
 H        -0.1609137927       -1.5157103516       -0.6876993027
 H        -1.7028368892       -0.8332973871        0.0591108802
 H        -1.5477947114       -2.4713785875       -0.4812282840
 H        -0.5119489857       -4.0349976153        1.0150986456
 H         1.0825670057       -3.2733664313        0.9066320544
 H         0.2814817719       -3.7286680941        2.5199543780
 H        -3.9464286382       -2.4206842561        4.1476604638
 H        -3.3106826211       -3.6718335422        5.0961305843
 H        -1.4469563668        1.5330861805        7.3968008371
 H        -1.1295800374        0.6772300903        6.0251581508
 H        -5.2165182211       -1.8577630115        6.1012023245
 H        -4.8948066920       -1.6467117979        7.7673616093
 H        -4.2700777279       -3.1088599390        6.9307992852
 H        -1.9601600217       -2.6711866423        7.9650186211
 H        -1.1332556595       -1.0542604724        7.8634779216
 H        -2.5576468694       -1.1804477578        8.7868873219
 H        -1.5142591503        3.2589326131        5.7297456338
 H        -3.2742061122        2.8983876910        6.0796111328
 H        -6.0987790789        3.1632742964        1.7807832391
 H        -5.3492645641        4.6689474643        1.1949422955
 H        -5.9981843187        3.2890135387        4.3090671626
 H        -5.0993888491        2.7994966350        5.4747427151
 H        -5.0683042307        1.7205948463        4.0995281562
 H        -3.1099693248        5.4289621916        3.3635703383
 H        -4.1385344479        5.4486343180        4.7730134487
 H        -2.5339105703        4.7932835643        4.8459451024
 H        -5.9323501368        3.4819794669       -0.7430318631
 H        -4.1826707288        3.2203154137       -0.6675517057
 H        -7.7680129599        1.2465671115       -4.1632984575
 H        -7.8458846986       -0.4440353658       -3.6274564454
 H        -8.7030950293        0.6714797257       -2.6416917002
 H        -7.7270126179       -1.1459623255       -0.6875398963
 H        -6.8353417598       -0.8737142123        0.5880154993
 H        -5.8978462294       -1.2663721117       -0.7727110758
 H        -8.5613790444        0.6802638206        0.1883846874
 H        -7.5274850136        2.1524310913        0.7105647870
 H        -8.4814584988        2.1184064639       -0.8241232820
 Na       -2.3286807292        1.2372408384        1.0313111542
