155

 C         7.9570144055       -3.2688540996       -8.6578910393
 C         7.9798654116       -3.5575111202       -7.0975579600
 C         6.8755709087       -4.4930188737       -6.4410209595
 C         5.5303641827       -3.7832846268       -6.3927482946
 C         4.9508415375       -3.3321610587       -5.0601561348
 C         6.8193332780       -5.7401117369       -7.3607939991
 C         7.3785549998       -4.8648692730       -4.9868311927
 O         8.8115469015       -3.0707796440       -6.3875670088
 O         4.8354850615       -3.5792883384       -7.3675421832
 C         4.0088646183       -2.0075241045       -5.3320506291
 C         3.7561381723       -1.2289471274       -4.0139527793
 C         2.5332144145       -1.6863082138       -3.1036884361
 C         1.5255562136       -0.4956023760       -2.8478871294
 C         1.5621592298        0.7628353134       -3.8541275823
 O         4.4042480506       -0.2466152542       -3.6896942507
 O         0.6232592695       -0.5514443713       -2.0278157168
 C         1.5549690841       -2.6552771537       -3.9998169712
 C         2.8110242728       -2.3735121347       -1.7023795299
 C         0.3619254680        1.7124910000       -3.8008328809
 C         0.7558792382        3.0031988842       -3.0275241843
 C        -0.3800867521        3.6734044905       -2.1032769054
 C        -0.4750742577        2.6706311043       -0.8815576188
 C         0.4925127204        2.8264791188        0.2370852333
 C         0.2365558719        5.0674070103       -1.8145289415
 C        -1.6947837512        3.7747720934       -2.8938825068
 O         1.8030453724        3.5514238885       -3.2631313300
 O        -1.3934782769        1.8286584660       -0.8047530958
 C         1.8879469509        2.1799052947       -0.0004639902
 C         2.6618724229        2.2310887530        1.3883979059
 C         3.9147295155        1.4266925207        1.6114834582
 C         3.1817927498       -0.1044046580        1.9009089880
 C         2.1259022466       -0.1322474787        2.9623323414
 O         2.3091611183        3.1430533253        2.2208775333
 O         3.4353029162       -1.0360148193        1.2031348085
 C         4.8322610254        1.3267781612        0.3636430633
 C         4.7995797152        1.9019169246        2.8443705687
 C         1.3706744695       -1.4765162884        2.9449672914
 C         0.0790951177       -1.2333892515        2.1054513639
 C        -0.8779416645       -2.4169189764        1.6611527820
 C        -2.2281306383       -2.1173236867        2.3485724733
 C        -2.8473627352       -3.1114399211        3.3381550610
 C        -1.1713045910       -2.5048833758        0.1706288560
 C        -0.3587676609       -3.8251838314        2.0788799960
 O        -0.1920978264       -0.0829487474        1.8521446252
 O        -2.6812778064       -1.0209800238        2.3001267064
 C        -3.7211744198       -2.3708846476        4.4064309009
 C        -2.9827722741       -1.3898648268        5.3881115286
 C        -3.8684251898       -0.9185917997        6.5784854662
 C        -4.7896942216        0.2276065738        6.1320488059
 C        -4.4529409381        1.6542644807        6.4400859057
 O        -1.8497727554       -1.0382638536        5.1695049742
 O        -5.8457946041       -0.0023724617        5.5428291331
 C        -4.7042552748       -2.1123410622        7.1662120549
 C        -2.8950633720       -0.3160643889        7.7314529389
 C        -5.0106560850        2.6282889508        5.4703790781
 C        -4.2065540880        2.6783544723        4.1228503801
 C        -4.6351706644        3.8263781726        3.1036469331
 C        -4.7146352522        3.1837077928        1.7088650634
 C        -6.0585761574        2.6143290978        1.2537126013
 C        -5.9080994612        4.6133775344        3.4530001833
 C        -3.3848536317        4.7745777419        3.1814952409
 O        -3.4974692312        1.7543922044        3.8742991758
 O        -3.6777487948        3.1753952574        1.0371350893
 C        -6.0271700884        2.0595329554       -0.1879258712
 C        -5.2684297738        0.5753410831       -0.1343207976
 C        -5.6538879613       -0.3563937446       -1.2572754711
 C        -6.4155031718        0.2392391151       -2.6033767045
 C        -6.7770899531       -0.7044407407       -3.6560894457
 O        -4.4592953796        0.2691621832        0.7314436868
 O        -6.7982766411        1.4192243645       -2.5998205464
 C        -4.3101821222       -1.0461654892       -1.8421605150
 C        -6.8027046493       -1.3332350413       -0.7538562909
 H         7.0109929492       -2.7406327892       -8.9947538137
 H         8.8493249066       -2.7427014905       -9.0552619275
 H         8.0191309857       -4.1407688950       -9.2165154595
 H         4.3315807314       -4.1908811735       -4.6761656894
 H         5.7974899366       -2.9326844073       -4.4248526474
 H         6.3286110870       -6.5007306140       -6.8382016476
 H         7.8556415692       -5.9800911954       -7.5323350874
 H         6.3538965489       -5.5655264891       -8.3007531607
 H         6.6480977376       -5.1716203653       -4.1912141967
 H         8.0294652069       -5.7237132937       -5.1038619604
 H         7.8903747236       -3.9998706556       -4.5305086707
 H         4.6415350689       -1.4330983967       -6.0683639306
 H         3.1245482118       -2.2370142174       -5.9344504658
 H         2.5609115172        1.2202840562       -3.7592556081
 H         1.7378250886        0.2066532577       -4.7610488048
 H         0.6529210243       -2.9741842125       -3.5018288571
 H         2.1247882804       -3.5337376936       -4.4131312074
 H         1.2129553879       -1.9608481502       -4.7225583306
 H         1.8836996064       -2.8823201105       -1.2526226872
 H         3.5487867804       -3.2529390903       -1.7742145902
 H         3.1604540362       -1.5778172387       -1.0154854914
 H        -0.5392966293        1.2536897298       -3.3029308776
 H         0.0039236928        1.9086845237       -4.7872832736
 H         0.7445529296        3.9064397754        0.4366499810
 H         0.0821680413        2.3063954500        1.1423058206
 H        -0.3190032378        5.5853028627       -1.0697866366
 H         0.3001740265        5.7709676790       -2.7480755196
 H         1.2261437686        4.9654428220       -1.3866728064
 H        -1.5250006584        3.7836328731       -3.9754385062
 H        -2.3203581087        2.9386990637       -2.6625661085
 H        -2.2158197622        4.7255569286       -2.6855841472
 H         1.7547246986        1.1204970715       -0.3692214553
 H         2.5410957392        2.7242393605       -0.7209796428
 H         2.6564875974       -0.0312361072        3.9513375883
 H         1.5361222173        0.7032718519        2.6951752599
 H         4.2746876175        0.9698863326       -0.5131845009
 H         5.7218187998        0.7943315231        0.4913327896
 H         5.0303638000        2.3474988555        0.1341275876
 H         5.4906341800        1.1195970307        3.2305164322
 H         5.3004893163        2.8625757060        2.6605689551
 H         4.1912470406        1.9529038111        3.7639626507
 H         1.2427526443       -1.6868395711        4.0088377932
 H         1.9217204565       -2.3852621648        2.7044549155
 H        -3.6219266009       -3.7207892903        2.8676755163
 H        -2.0560197255       -3.7580926971        3.8616994713
 H        -0.2676221648       -2.5850869392       -0.4486149173
 H        -1.5992615151       -1.4769381768       -0.0081013255
 H        -1.9193129855       -3.2611094559       -0.1633373618
 H        -1.1121630082       -4.5885372812        1.9403565113
 H         0.4688821807       -4.0986462419        1.3523300296
 H        -0.0756791583       -3.9587912023        3.0885477267
 H        -4.5888249467       -1.9657402847        3.9976267011
 H        -4.0715225745       -3.2068979721        5.0392567545
 H        -5.0045216801        1.8451116587        7.3964936941
 H        -3.4021965267        1.7606382279        6.6068430224
 H        -5.6525708627       -2.2653482376        6.6559796582
 H        -4.9048591853       -1.7550580168        8.1593849415
 H        -4.2038610622       -3.1309150215        7.2880143675
 H        -2.2056333645       -0.9806659619        8.1642743681
 H        -2.2278164762        0.4459948406        7.3784330808
 H        -3.6109161871        0.0592150970        8.5299106687
 H        -5.0975169275        3.5745921842        6.0509909461
 H        -6.0201423954        2.3296145204        5.1878975498
 H        -6.4783172882        1.8769651877        1.9010034473
 H        -6.8166061895        3.4333494629        1.1099903148
 H        -6.0212861961        5.5022219685        2.8337619050
 H        -5.9278613044        4.8894416199        4.5460531314
 H        -6.7311609150        4.0828733624        3.1576786827
 H        -2.6340860204        4.4350064444        2.3927728678
 H        -3.6424148350        5.7942420225        2.9672696613
 H        -2.8855876833        4.7738285952        4.1927634834
 H        -7.0517238784        2.2002315702       -0.6352536828
 H        -5.2522950498        2.5456932542       -0.8029877501
 H        -5.9349058960       -1.1480469099       -4.1966078177
 H        -7.4191041563       -1.4351163684       -3.2604472714
 H        -7.2514004969       -0.2539962786       -4.5424136940
 H        -4.5394463307       -1.7028362353       -2.6801458989
 H        -3.7131539491       -1.3728808985       -1.0231215695
 H        -3.5949933904       -0.3661638228       -2.2671536998
 H        -6.8551094771       -1.3096555246        0.3617231637
 H        -7.8111828933       -1.0724525544       -1.1047558668
 H        -6.5750329370       -2.3208690039       -1.1541006513
 Na       -2.3292504330        1.0773501179        1.4640370532
