155

 C         8.0647172579       -2.6202011673       -8.7214559717
 C         8.4706509505       -2.0102590491       -7.3933641591
 C         8.5539214997       -2.9298042317       -6.0917893453
 C         7.0921901449       -3.1820534364       -5.5421283381
 C         6.2664086707       -1.9147684364       -4.9452639113
 C         9.3136596223       -4.1812681721       -6.2909019795
 C         9.2684011854       -2.1257957763       -4.9714651546
 O         8.5628632798       -0.8197798622       -7.2597546027
 O         6.4976492414       -4.2215361062       -5.6463521385
 C         4.8036390721       -2.0058818880       -5.3709542557
 C         3.8581064547       -1.1437412895       -4.5501040228
 C         2.5198443221       -1.8137258085       -4.1692453957
 C         1.5562883873       -0.8261690093       -3.3217883341
 C         1.1967520225        0.4762169757       -3.9200710977
 O         4.1932022513       -0.0196738547       -4.1251811428
 O         1.3365359888       -1.1208178678       -2.1307907228
 C         1.7285511901       -1.9547117361       -5.5384889512
 C         2.6043652117       -3.1997057126       -3.4571227341
 C        -0.0723562608        1.1637095824       -3.3244643548
 C        -0.0309624790        2.7137583387       -3.3375552307
 C        -0.6052554467        3.4816074034       -1.8615998865
 C        -0.2804318148        2.6422910402       -0.5681902241
 C         1.0939781922        2.9273200223        0.0951524934
 C         0.1826294766        4.7888368623       -1.9254715771
 C        -2.1971207740        3.7015782308       -1.9631086927
 O         0.4229977636        3.4135633900       -4.2443690234
 O        -0.9864504490        1.6901661421       -0.1491542954
 C         1.6135921977        1.7958251091        1.0445889528
 C         2.5094011049        2.2873732544        2.1892063226
 C         3.4765360664        1.1301419629        2.8988097022
 C         2.5407351524       -0.1462031571        3.3512489622
 C         1.4193974442        0.2174388850        4.3254833321
 O         2.5911531252        3.4514148329        2.4463020499
 O         2.6469663509       -1.2228633809        2.7666338074
 C         4.4051130150        0.5007206377        1.7720059408
 C         4.2849898439        1.8568640048        4.0161018622
 C         0.2332659019       -0.7717893192        4.4887610455
 C        -0.3376754119       -1.0887058474        3.0325642524
 C        -0.8507147973       -2.5641202471        2.5055661234
 C        -2.4493203590       -2.5488928771        2.8303373532
 C        -3.0601367783       -3.4603602865        3.9615929378
 C        -0.6134700784       -2.6483423519        0.9670773869
 C         0.0130326214       -3.6142666855        3.2393190131
 O        -0.5032810811       -0.1396878181        2.2239424645
 O        -3.1651087450       -1.8895188985        2.0822306745
 C        -4.3036544748       -2.7931003425        4.7240915897
 C        -3.7014042382       -1.7078823386        5.6736131042
 C        -4.6427671847       -0.8602589031        6.5016411920
 C        -4.9129208805        0.4790190751        5.6701698812
 C        -3.9620354264        1.6232865715        5.9445354370
 O        -2.4874528867       -1.4235028230        5.7374703849
 O        -5.8656372372        0.4929009525        4.8851845509
 C        -5.9642020294       -1.6334627703        6.6974579185
 C        -3.9741375622       -0.5124681042        7.8778867373
 C        -4.2476006942        2.7473910579        5.0181473561
 C        -3.7728928944        2.4783975911        3.6429647742
 C        -4.3727460025        3.3417702939        2.5386466820
 C        -4.9445171221        2.5895584887        1.1688616330
 C        -5.6821134621        1.2548623532        1.2497767907
 C        -5.5112765087        4.3034101312        2.9232627812
 C        -3.0894569248        4.0827762286        2.0513143715
 O        -2.9750674889        1.6193468958        3.2623609512
 O        -5.0437454523        3.2451903227        0.2024529966
 C        -6.3149586769        0.6872647763       -0.0224920444
 C        -5.3097538127       -0.2096754692       -0.9161521108
 C        -6.0566356891       -0.7309400140       -2.3146490522
 C        -6.1568756922        0.5577721586       -3.3440821491
 C        -6.2955413554        0.0702415090       -4.7892595702
 O        -4.1123839363       -0.2172291353       -0.7297380007
 O        -6.2802446186        1.6597935302       -2.9681189055
 C        -5.0597757015       -1.7523620767       -2.9715954878
 C        -7.5265096782       -1.2397063595       -2.0526710302
 H         7.9871162340       -1.8475393294       -9.4799025424
 H         8.7670769224       -3.3792878090       -9.0657699766
 H         7.1296171530       -3.3226973693       -8.6993128511
 H         6.3128119053       -1.9004855338       -3.8332583146
 H         6.6268387402       -1.0228132719       -5.3972726171
 H         9.3109523654       -4.7356578992       -5.4229576339
 H        10.3596493880       -3.8895066507       -6.4355480083
 H         9.0082856498       -4.7483680645       -7.1452059200
 H         9.2632312038       -2.6493097630       -3.9758975731
 H        10.2446508305       -1.8488604234       -5.3422372848
 H         8.8515457157       -1.1040408455       -4.8414368770
 H         4.7141236220       -1.7656620750       -6.4401762341
 H         4.4412109582       -2.9610689070       -5.3255084038
 H         2.1527449166        1.1012675022       -3.8433799246
 H         1.0510882588        0.5479213790       -5.0534610090
 H         0.8373361425       -2.5283295122       -5.3221702737
 H         2.2696111857       -2.5294655596       -6.3511868359
 H         1.4541998091       -1.0100815965       -6.1128196643
 H         1.7142285058       -3.8286385222       -3.6235564909
 H         3.4625430015       -3.7364145582       -3.8182977962
 H         2.6358391221       -3.0777254243       -2.3340644948
 H        -0.3803762585        0.7409094715       -2.3452771579
 H        -0.9804652742        0.9221970630       -3.9420848308
 H         1.7711687465        3.2779157475       -0.6647721215
 H         0.8170602695        3.8196438602        0.6666074878
 H        -0.0594380974        5.4289637125       -1.0041203567
 H         0.0093015710        5.2928818866       -2.7927237840
 H         1.2207027335        4.4553042352       -2.0057103376
 H        -2.5960614898        4.6497353885       -2.3912470521
 H        -2.6849435265        2.9461835360       -2.5348996769
 H        -2.6297392862        3.5576259611       -0.9404554602
 H         0.7076741427        1.4235214607        1.5156748854
 H         1.9788047734        0.9241459517        0.4939190512
 H         1.9248053949        0.4750082276        5.3287811472
 H         1.0502385507        1.1668874892        4.0652011687
 H         3.9496133021        0.5121515466        0.8270709691
 H         4.5878359025       -0.5325389765        2.0079460249
 H         5.3665747756        0.9184814683        1.6796134594
 H         4.7112396131        1.1719180141        4.7149066843
 H         5.0213637981        2.3686143038        3.4838649602
 H         3.5606328706        2.3029842253        4.6506249120
 H        -0.6002954648       -0.2883722123        5.0584454155
 H         0.5090713797       -1.6689702231        4.9984421590
 H        -3.3932864821       -4.3607963977        3.5211839964
 H        -2.2721131409       -3.7035768485        4.7031678932
 H         0.1028724590       -1.8983680630        0.6682241932
 H        -1.5320755501       -2.3268717702        0.4190218427
 H        -0.1417268107       -3.6047077296        0.8433869087
 H         0.0627000675       -4.5716648988        2.7410338929
 H         1.0718562157       -3.2388847126        3.3363533637
 H        -0.2612959337       -3.7113454121        4.2617658214
 H        -4.9261849037       -2.4013044589        3.9028414645
 H        -4.7764026008       -3.5712991851        5.4427296501
 H        -4.0267080096        1.8616890656        7.0247606868
 H        -3.0012639452        1.2086174755        5.6120805595
 H        -6.3813793387       -1.8422256482        5.7338225646
 H        -6.7325784655       -1.0176516217        7.1672296901
 H        -5.6536519804       -2.4143044100        7.4092260270
 H        -3.8524811100       -1.4417101411        8.4293294561
 H        -2.9805322204       -0.0077267194        7.6874968700
 H        -4.5558246277        0.1545856165        8.5616196030
 H        -3.8650875621        3.7637739292        5.3372457420
 H        -5.3393270279        2.8411907261        4.9182780366
 H        -4.9478002914        0.4973427814        1.6704066467
 H        -6.3887207347        1.4547872789        2.0853774516
 H        -5.6188236379        4.8374652374        1.9857137333
 H        -5.2978567426        4.9243483751        3.8085230445
 H        -6.3784916216        3.6314618938        3.2266802818
 H        -2.3030601786        3.3178158114        1.8608830386
 H        -3.3204465113        4.5718498733        1.1319838820
 H        -2.8872806910        4.7506430288        2.8926083384
 H        -7.1719782173        0.0283536008        0.2947465090
 H        -6.6991028799        1.4052127686       -0.7099171746
 H        -7.1676531017       -0.5885168159       -5.0091615687
 H        -6.2941263164        0.9943762555       -5.4329448916
 H        -5.4784942323       -0.5098581715       -5.1998771618
 H        -5.6689391437       -2.2402640942       -3.7778711341
 H        -5.0103877854       -2.5216214929       -2.2111963300
 H        -4.1172082996       -1.2335465691       -3.2103411304
 H        -7.4994522320       -2.3026122717       -2.1194383783
 H        -7.9064865752       -0.6927028890       -1.1973583552
 H        -8.1723372439       -0.9866311846       -2.9025394026
 Na       -2.5907760414        0.3133349176        1.0925820315
