155

 C        10.1392904378       -1.6094839776       -8.0533953503
 C         8.9499516498       -1.1090221994       -7.3391554908
 C         8.9216959688       -0.6344217019       -5.8513366457
 C         8.0006243884       -1.6608640491       -5.1220878594
 C         6.4507397133       -1.3998345568       -5.0192980347
 C        10.2742045492       -0.5819168851       -5.1500429039
 C         8.2219318059        0.7827865285       -5.7352492399
 O         7.9322410180       -1.1175904590       -8.0059945407
 O         8.3839798114       -2.7066742695       -4.7152153879
 C         5.5564043014       -2.6966231390       -5.0293530785
 C         4.1698869619       -2.3638026939       -4.3997976022
 C         2.7545962816       -2.6499133504       -5.1306337346
 C         1.6444569637       -1.3708956837       -4.6877784484
 C         1.9407161186       -0.0170703526       -4.0252149044
 O         4.0011887563       -1.7671494457       -3.3114299353
 O         0.4461163583       -1.6583500895       -4.8266636311
 C         2.8201256604       -2.6589901512       -6.7572459549
 C         1.9758436744       -3.9140637566       -4.6969916288
 C         0.6044495550        0.6097876519       -3.5889741207
 C         0.7073594194        1.9971672190       -2.9029226971
 C        -0.5863988138        2.7084418283       -2.1393976573
 C        -0.3477768194        2.1523243180       -0.6613353303
 C         0.7066242986        2.6909082915        0.2353012671
 C        -0.4882724324        4.2433321613       -2.2943784548
 C        -1.8631868287        2.1126636896       -2.8109872628
 O         1.8002315057        2.5331070217       -2.9033134921
 O        -1.1035201832        1.2728221421       -0.2804655671
 C         1.3047464107        1.7046820402        1.2316947078
 C         1.5547923909        2.3064790685        2.6469601628
 C         2.6044348216        1.5434743961        3.5461229016
 C         2.2911817796       -0.0370560486        3.3965662001
 C         1.2377893400       -0.6891186823        4.2960316935
 O         0.9533661202        3.3348018734        3.0091515256
 O         2.7507318533       -0.6139527969        2.4662919550
 C         4.0057450034        1.7536910996        2.9062630142
 C         2.7409210205        2.2231626524        5.0016922514
 C         0.7466759363       -2.0061749681        3.8008380335
 C        -0.4288713470       -1.6252055205        2.8896286727
 C        -1.4167793435       -2.7955627017        2.3974538492
 C        -2.6757770042       -2.4165629016        3.2256566538
 C        -3.4028737576       -3.3690796817        4.1211005973
 C        -1.6181427675       -2.4456709801        0.8933644763
 C        -0.9435944165       -4.2200820238        2.7118836516
 O        -0.6745114294       -0.4683166273        2.5945059818
 O        -3.2456517032       -1.3477483679        3.0334509049
 C        -4.5966769780       -2.8012204089        4.8278903224
 C        -4.1933096892       -1.6799324651        5.7928138081
 C        -5.2949591488       -0.7775988610        6.3289331193
 C        -5.2367167460        0.6160094584        5.5914664345
 C        -4.1929071744        1.7610748867        5.8392097813
 O        -3.0226079863       -1.5090858622        6.1146529436
 O        -6.1739171555        0.8105385244        4.8416605270
 C        -6.6678781675       -1.3796567724        6.1028465730
 C        -5.0990249936       -0.5278124907        7.8759899221
 C        -4.5485021372        3.0072162930        4.9042297490
 C        -4.0245711449        2.6588328456        3.4809373653
 C        -4.7606021224        3.3273298957        2.2828095629
 C        -4.9270013701        2.3189662183        1.0617810570
 C        -6.0919963237        1.2724553497        1.1635308518
 C        -6.1163352481        3.9835574724        2.5005823295
 C        -3.8234648251        4.4572512044        1.8498992087
 O        -3.2942099468        1.7268180343        3.2580626005
 O        -4.1372682610        2.4479022346        0.0914671972
 C        -6.2847872624        0.2745155437       -0.1013880822
 C        -5.0558084393       -0.2823796056       -0.7467541382
 C        -4.9989084845       -0.7736877656       -2.2432702659
 C        -5.2916816305        0.4961403883       -3.1323976013
 C        -5.5253047020        0.3471426966       -4.6341639367
 O        -4.0155694196       -0.4346479782       -0.0688585468
 O        -5.2780412069        1.5940485947       -2.6290904254
 C        -3.5669112115       -1.1378590487       -2.5801334357
 C        -5.9320184465       -2.0061857338       -2.5271628094
 H        10.0166412748       -1.4401253159       -9.1103322319
 H        11.0706205873       -1.2264525061       -7.7728115865
 H        10.2242689018       -2.7549959540       -7.8031659900
 H         6.3222559086       -0.9509847742       -4.0106782929
 H         6.1069766659       -0.7121755820       -5.7602153265
 H        10.2520205333       -0.0758440895       -4.1522785272
 H        10.9335403245       -0.0184129317       -5.7704406490
 H        10.6609615017       -1.5331826623       -4.8621611342
 H         8.0356844097        1.0132201455       -4.7164672242
 H         9.0001758229        1.4903099857       -5.9928135559
 H         7.3025167887        0.7893475578       -6.2557284893
 H         5.4530461048       -3.2536443848       -5.9114205109
 H         6.0111939627       -3.3841169610       -4.2743418745
 H         2.7136169629       -0.1434211743       -3.2511599664
 H         2.4401739021        0.5937093440       -4.7839068017
 H         1.8195337846       -2.8397392825       -7.1692856529
 H         3.4012703235       -3.4777922555       -7.1086908165
 H         3.2127180919       -1.7821523411       -7.1347389270
 H         0.9304994005       -3.6008333865       -4.9259486680
 H         2.3308143485       -4.8521365500       -5.2107074883
 H         2.1000570181       -4.1539657279       -3.5640725564
 H        -0.0418431751       -0.2447286463       -3.1487529614
 H        -0.0052588010        0.8261308498       -4.5144260160
 H         1.5286941006        2.9288403574       -0.4555398053
 H         0.3494172955        3.6782427115        0.6663436062
 H        -1.0124901347        4.8569174257       -1.5165372576
 H        -0.8865952217        4.5680379592       -3.2121497413
 H         0.5596333478        4.6271281417       -2.3967071614
 H        -2.6094058963        2.7924967965       -2.5269905019
 H        -1.7056389938        2.2280658926       -3.9056487837
 H        -2.0660317002        1.1076466255       -2.4236233088
 H         0.6437359221        0.7992718215        1.2549233489
 H         2.2940903820        1.4613593060        0.9260208548
 H         1.6158239437       -0.7274831129        5.2977607466
 H         0.3630920079        0.0075855724        4.5789400232
 H         4.2655903756        1.2315037580        2.0727789227
 H         4.7493125046        1.3496180886        3.5788531338
 H         4.1926009854        2.7651341883        2.7409810935
 H         3.6972627798        2.7407528283        5.1177964324
 H         1.8538771509        2.8820425000        5.0211384973
 H         2.6389514699        1.5820619235        5.9204541871
 H         0.3145566899       -2.6195693474        4.5944808417
 H         1.5440576623       -2.5715119683        3.3303024067
 H        -3.7870384729       -4.1756426917        3.3641066157
 H        -2.7552951299       -3.8042948017        4.8864278627
 H        -1.0031962516       -1.5590910793        0.7063873499
 H        -2.6680178412       -2.1851821057        0.5709727070
 H        -1.4098751705       -3.2825904932        0.1972298202
 H        -1.7704006309       -4.8637702152        2.5161976281
 H        -0.1708626535       -4.4525744891        1.9770651114
 H        -0.6632783073       -4.4286880719        3.7324050393
 H        -5.3901123396       -2.4999145713        4.0746152354
 H        -5.0493917558       -3.6627978070        5.2856188920
 H        -4.2840271963        2.1095499436        6.8991458252
 H        -3.1969494060        1.3634520465        5.8088474255
 H        -6.8566397588       -1.5628044247        5.0775884839
 H        -7.4594554033       -0.7998801587        6.5671391947
 H        -6.8362468278       -2.3113382341        6.6950233349
 H        -4.5466160441       -1.3294665738        8.3060278249
 H        -4.6558247771        0.3929547002        8.1439417526
 H        -6.1533042611       -0.5021314159        8.2971565817
 H        -4.2546634113        4.0281412546        5.1511792983
 H        -5.6119947653        2.8953111394        4.7992404169
 H        -5.9838687495        0.7593400305        2.0813744737
 H        -7.0950816478        1.8193386949        1.3810723841
 H        -6.7960315707        4.1766775595        1.6420412650
 H        -6.1460524269        4.9457054356        3.0747357788
 H        -6.7784026486        3.4484692014        3.1412671983
 H        -2.8546870741        3.9788722768        1.9099869142
 H        -3.9012125680        4.6426621637        0.7777666634
 H        -3.8820518500        5.3206340151        2.4968488346
 H        -6.8795185320       -0.5898083004        0.2209274794
 H        -6.9870467468        0.7854945184       -0.7761691377
 H        -4.9815834884        1.2271811245       -4.9911396547
 H        -5.1580299419       -0.5318389087       -5.1053281927
 H        -6.6218062418        0.2854516743       -4.8409924471
 H        -3.2982073433       -1.1444623870       -3.6890222653
 H        -3.4110428811       -2.2315514155       -2.4735898014
 H        -2.9191463788       -0.5486169379       -1.9943137153
 H        -5.8440632141       -2.8358416258       -1.7892262167
 H        -6.9981642855       -1.7477243781       -2.4461200342
 H        -5.9088020827       -2.5106307418       -3.5034166603
 Na       -2.5493776393        0.5055813634        1.5058171480
