155

 C         9.5896582623       -0.2929342106       -6.7884489336
 C         8.2873060139        0.6471618941       -6.6220388300
 C         8.1430750378        1.3439842472       -5.1377764800
 C         8.3099395585        0.2214519378       -4.1629454717
 C         7.1456290455       -0.8148098234       -3.8449510913
 C         9.3509603892        2.2781575220       -4.8117384722
 C         6.7076806283        2.0749266599       -5.1867207317
 O         7.3906581538        0.7979931501       -7.4252674867
 O         9.3376663956        0.0381946055       -3.5435602748
 C         6.7084863951       -1.6457103484       -5.0845365357
 C         5.5464556477       -2.5977883055       -4.8767207169
 C         4.2021893892       -2.1971406924       -5.5432413618
 C         3.7448765266       -0.9038618488       -4.9412257905
 C         2.7600248190       -0.8872487067       -3.8250892304
 O         5.6520540264       -3.5691747026       -4.2112678444
 O         4.0208724139        0.1727571905       -5.4732743657
 C         4.5608550685       -1.9463402834       -6.9922098317
 C         3.1727545371       -3.3215551564       -5.4041907631
 C         2.6027549398        0.5248092408       -3.1827077577
 C         1.5625647427        0.5026080521       -2.1136041812
 C         0.4226834342        1.6415625486       -2.1265144131
 C        -0.5348875859        1.4562663808       -0.8158343622
 C        -0.0566484246        2.2628574071        0.4744665352
 C         0.9673908000        3.0757359761       -2.3057866344
 C        -0.4027732900        1.3135804118       -3.4474122455
 O         1.5046481563       -0.4701679909       -1.3409824041
 O        -1.5153779835        0.7521892617       -0.8289037035
 C         1.2111046203        1.6619729212        1.1471646855
 C         1.3139555714        2.3953761296        2.6037500279
 C         2.2574379474        1.8366048905        3.7328972272
 C         1.5748213564        0.4072083980        4.1395444408
 C         0.0000660873        0.5326119827        4.4553831667
 O         0.4588371008        3.2574322600        2.8373414798
 O         2.0777976768       -0.6563490634        3.9260288305
 C         3.6888308955        1.5774624615        3.2178332766
 C         2.3712609753        2.9582157167        4.8279959274
 C        -0.6889915980       -0.7641535281        4.5435216727
 C        -1.0775510936       -1.3057070946        3.1870775724
 C        -1.5416483027       -2.8002160734        2.9335731120
 C        -3.1962234866       -2.6806175552        3.0166927229
 C        -4.0798653882       -3.7378814455        3.9234445944
 C        -1.1528625278       -3.1725948973        1.4576251729
 C        -0.9951513644       -3.6764600160        4.0409261541
 O        -1.0953609753       -0.5746819395        2.2418860917
 O        -3.7757675878       -1.9035225661        2.2876029483
 C        -5.1365208657       -2.8192198044        4.5848349949
 C        -4.7233467617       -1.7345607795        5.5310527293
 C        -5.6403387704       -0.8681059082        6.5031798938
 C        -5.8406243774        0.3699626856        5.5753746883
 C        -4.8874351518        1.6116025974        5.7846960548
 O        -3.5299649574       -1.4491039225        5.5366137577
 O        -6.5853235975        0.3113876528        4.6284698076
 C        -6.9864548427       -1.5407632032        6.9343326201
 C        -5.0522917188       -0.4588099217        7.9072922051
 C        -4.9244828293        2.5737134033        4.5621094121
 C        -4.6786556121        1.9722195634        3.0660791509
 C        -5.1492971659        3.1167702695        1.8587231821
 C        -4.6796348626        2.2850546015        0.6221272812
 C        -5.7122863552        1.5751754872       -0.2931939448
 C        -6.6204910354        3.3855035622        2.0319118582
 C        -4.1685147992        4.3588996024        1.9505091698
 O        -3.8568636777        1.1797344117        2.9588083682
 O        -3.4432903682        2.1025250825        0.4575119046
 C        -5.2064697345        0.8571692936       -1.4817623098
 C        -5.2848462292       -0.6642726348       -1.4995901685
 C        -5.9706805522       -1.3749760156       -2.6805429744
 C        -5.0106840892       -0.9720416556       -3.8298080742
 C        -5.5232998256       -1.2892737348       -5.2387871411
 O        -4.5142942039       -1.2905151985       -0.7271285458
 O        -3.8908712681       -0.5230448110       -3.5832813515
 C        -6.0428719118       -2.9362872129       -2.3834772652
 C        -7.4442988304       -0.7660508817       -2.7388247460
 H        10.3906928612        0.3207192386       -6.8848958026
 H         9.6404798165       -0.9108516857       -5.9157267693
 H         9.5341729762       -1.0660470141       -7.6409929231
 H         7.5211916451       -1.4608834497       -3.0721779697
 H         6.3645937606       -0.2650814094       -3.3317525863
 H         9.3801469499        2.5751938564       -3.8113181275
 H         9.4506103972        3.1167816079       -5.4980971889
 H        10.1892649015        1.5973930086       -4.7930714633
 H         6.4392910347        2.5393372287       -4.2461324783
 H         6.6303355563        2.9626196257       -5.8628811708
 H         5.8674167310        1.3679668816       -5.3496754029
 H         6.5377996810       -0.9491696532       -5.9053501075
 H         7.6128415075       -2.2296820888       -5.3034464955
 H         1.8220375490       -1.2809322375       -4.3551420345
 H         2.9569117751       -1.6052159357       -3.0357455251
 H         3.6903493051       -1.9384133481       -7.6228443263
 H         5.3350204274       -2.6276355109       -7.3938419987
 H         4.9993565705       -0.9314102957       -6.9544710975
 H         2.1877298015       -2.9946658047       -5.6773300406
 H         3.5826215212       -4.2136565547       -5.9383549088
 H         3.0388836723       -3.7372564891       -4.3909423205
 H         2.3594996664        1.3581674988       -3.8410920344
 H         3.5589635100        0.9388666218       -2.7813390363
 H         0.3149241926        3.1958904377        0.0832585708
 H        -0.8689409073        2.4483782725        1.2003188539
 H         0.1116099361        3.7403986235       -2.4677614904
 H         1.5301260642        3.0669061946       -3.3393542968
 H         1.6737504620        3.3112457339       -1.5238029264
 H         0.2307099831        1.6331192092       -4.2732803395
 H        -0.4726353762        0.2694581075       -3.4426494028
 H        -1.4176108332        1.7014526796       -3.6094791411
 H         1.0278008927        0.5706163344        1.2503149377
 H         2.0407585243        1.7658315281        0.4291588722
 H        -0.1160657227        0.9263193875        5.4158804336
 H        -0.4689027764        1.2898380186        3.8338863194
 H         3.8489281667        2.0055789726        2.2657522384
 H         3.8633022646        0.4500509733        3.0730711915
 H         4.4750659744        1.9085044986        3.8910402081
 H         1.3887792467        3.4525922931        4.9333708054
 H         2.6985174712        2.5282529458        5.7678239292
 H         3.0504396771        3.7537923512        4.5441570448
 H        -1.6321136263       -0.7618452801        5.1203816084
 H        -0.0905087893       -1.4628473745        5.0488635756
 H        -4.7639192459       -4.3520743582        3.3023273868
 H        -3.5259410119       -4.2803037552        4.6441675196
 H        -1.5981324556       -2.5436094346        0.6978441917
 H        -1.2832590196       -4.2249588563        1.3394600326
 H        -0.0913497575       -3.1029491392        1.5404374708
 H        -1.1706789715       -4.7399150461        3.9054574746
 H         0.1062086352       -3.5886166450        3.9848313511
 H        -1.3389872296       -3.4021122912        5.0269894857
 H        -5.6784658435       -2.3609348430        3.7404250270
 H        -5.8777690357       -3.4141400263        5.0817692768
 H        -5.2687149775        2.1964585377        6.6003740197
 H        -4.0152150363        1.1382749489        6.1213868690
 H        -7.4064614497       -1.6902832283        5.9278990431
 H        -7.5908209639       -0.9241595645        7.5837531104
 H        -6.6911776984       -2.4655605247        7.4649833763
 H        -4.9698224880       -1.2571116796        8.6347405103
 H        -4.0985760705        0.1321530517        7.8317553656
 H        -5.7388214318        0.2349310281        8.2973951654
 H        -4.1214476597        3.3238111303        4.6686817975
 H        -5.8261391693        3.1520622699        4.5965665756
 H        -6.1378322219        0.9119289991        0.4357241006
 H        -6.6489515276        2.2324236323       -0.6007472014
 H        -7.0132137526        3.8413902166        1.0448557200
 H        -6.8493265145        4.1348657919        2.8785535078
 H        -7.0479038266        2.3979692293        2.1958350873
 H        -3.0917386808        4.0576107561        2.1391572049
 H        -4.1568797315        4.8854355506        1.0346329879
 H        -4.4401885505        5.0569239989        2.7585580965
 H        -5.7712544592        1.3333105570       -2.2855005153
 H        -4.1709105939        1.1892931032       -1.6307524142
 H        -6.2769005545       -0.5430330287       -5.2971607248
 H        -4.6936899907       -1.1440397430       -5.9589917346
 H        -5.8721276997       -2.2804580975       -5.2455413901
 H        -5.8689987337       -3.6263486205       -3.2022189027
 H        -7.1224970815       -3.0358240402       -2.1411214746
 H        -5.2873694736       -3.2370537389       -1.5868524388
 H        -7.7598993387       -0.7426452436       -1.6907264263
 H        -7.3870325562        0.1527775202       -3.3183452501
 H        -8.0028523122       -1.4111294305       -3.3572003894
 Na       -2.9956180480       -0.0356567785        0.9889672221
