155

 C        10.2852850266        0.7676806530       -6.8307103167
 C         8.8944827596        1.3222553175       -6.6071419206
 C         8.5005278094        1.7439629652       -4.9775001060
 C         8.6465749499        0.3018598857       -4.1749810889
 C         7.5607593034       -0.7769054589       -4.0768291291
 C         9.5973404272        2.6993421786       -4.3187915505
 C         7.1035045298        2.3284264204       -5.0894673879
 O         8.0411331864        1.3947590929       -7.4626013712
 O         9.6971571947        0.0540106333       -3.6262652002
 C         6.6709108952       -1.1577438423       -5.2895381284
 C         5.6388524043       -2.2071038591       -4.8011747896
 C         4.2826607235       -2.2877350545       -5.5918163739
 C         3.4872757864       -0.9700352146       -5.1105756813
 C         2.4838859674       -1.1462228940       -3.8969661616
 O         5.7399870990       -2.8915915564       -3.8386121991
 O         3.8164689313        0.0779334795       -5.5380622611
 C         4.5453814362       -2.2021111498       -7.0660200612
 C         3.6638000007       -3.6265342839       -5.2814249632
 C         2.4197053550        0.1708474810       -3.1782798506
 C         1.5242889916        0.1983923957       -1.9288474710
 C         0.3135758952        1.1439861323       -1.9659008738
 C        -0.6008392731        0.7789381679       -0.7090074221
 C        -0.5033059079        1.7454688543        0.4662085151
 C         0.7811582131        2.6287383812       -1.9742513315
 C        -0.4296623345        0.7935394627       -3.2360449732
 O         1.7430874467       -0.5709483536       -0.9855684490
 O        -1.4178213734       -0.1341340118       -0.7798535877
 C         0.7787837117        1.4296010676        1.3469470035
 C         1.0005277830        2.3778717030        2.4800778483
 C         2.1313711138        1.8385130295        3.5054906502
 C         1.5292501085        0.5092856583        4.1647313692
 C         0.1585260899        0.4512639322        4.9606264005
 O         0.4736598491        3.3964460764        2.6167587587
 O         2.1749773924       -0.5309339340        4.0186210128
 C         3.4314370884        1.3554301018        2.7483994137
 C         2.2957884278        2.8852193699        4.5958921978
 C        -0.3945413937       -0.9607536139        4.8600988644
 C        -1.1632615771       -1.3130615134        3.5384376208
 C        -1.5858015362       -2.7692822663        2.9921608264
 C        -3.2062862634       -2.7047768231        3.0543821344
 C        -4.0179111614       -3.6688796816        3.8708439739
 C        -1.0117279608       -2.9185998496        1.5338869631
 C        -0.9898965010       -3.9797079460        3.8740038073
 O        -1.5918767610       -0.3580451817        2.9279415314
 O        -3.7429157235       -1.8585798515        2.4025919441
 C        -5.1767163817       -2.9773212142        4.7195266630
 C        -4.5870411469       -1.7933314227        5.5487492930
 C        -5.7300359507       -0.8403558423        6.2305931527
 C        -6.0440954564        0.3824876865        5.3669401560
 C        -5.0377141203        1.5394109225        5.5831696239
 O        -3.4492051527       -1.4889054747        5.5809062071
 O        -6.9267789719        0.3976293796        4.5717112385
 C        -7.0361234291       -1.6236598410        6.4413402708
 C        -5.2168334743       -0.4540465844        7.6298786848
 C        -5.1037362832        2.6822331847        4.5551771491
 C        -4.8928621299        2.2166689126        3.1037500219
 C        -5.3069261650        3.1705473147        1.7686707689
 C        -4.5597251892        2.6191693322        0.5386274765
 C        -5.5387864451        1.9235918729       -0.4191179987
 C        -6.8209578394        3.2170187580        1.6793530008
 C        -4.7771711192        4.5636083719        2.1120443754
 O        -4.4674687775        1.0866803961        2.9017520118
 O        -3.3741470158        2.4561129599        0.5309881627
 C        -4.7231909985        1.0851896746       -1.5578285450
 C        -5.0744057731       -0.4603461746       -1.5827163054
 C        -5.8736068709       -1.1935536672       -2.7013544676
 C        -5.0796538760       -1.4345100755       -4.0582435348
 C        -5.7659954511       -2.3583121906       -5.0520868664
 O        -4.4600535502       -1.1762163542       -0.7979080140
 O        -4.0949640079       -0.7785411859       -4.3600955107
 C        -6.2399085985       -2.6664900199       -2.1545209601
 C        -7.1253545125       -0.3432672494       -3.0629187312
 H        10.3336980923       -0.0449501968       -6.1556344012
 H        10.4839807616        0.3844086126       -7.8294675503
 H        11.0617026174        1.5286568303       -6.4869518921
 H         8.0105893589       -1.7061750558       -3.5371723988
 H         6.7723105462       -0.4054769739       -3.3834704294
 H         9.0488707359        3.3167941173       -3.5858733564
 H         9.9025502409        3.4508499738       -5.0450232595
 H        10.4765142941        2.1486087320       -4.0136605072
 H         6.8338502865        3.0795955458       -4.2969335974
 H         7.0586402266        2.8885910529       -6.0455605159
 H         6.2788745130        1.6015736090       -5.1568462394
 H         6.0287685964       -0.3624410328       -5.6802766420
 H         7.2334986887       -1.5598226672       -6.1505995367
 H         1.4987607445       -1.4941251569       -4.2845659331
 H         2.8184511380       -1.9958598058       -3.2712814847
 H         3.7051343160       -2.6504371145       -7.5052055266
 H         5.2990617527       -2.9648439903       -7.2209876277
 H         4.7173396789       -1.2406372575       -7.5374516887
 H         2.4957073277       -3.5047947542       -5.2028020096
 H         3.7534719720       -4.2432657202       -6.2247109184
 H         3.9690740935       -4.1472897000       -4.3721938672
 H         1.9814961370        0.9252498386       -3.8208135980
 H         3.4030231200        0.3801484556       -2.8786708888
 H        -0.6325277772        2.7445491689        0.2446840581
 H        -1.3161585740        1.5115723636        1.1846758936
 H        -0.1527562033        3.2564636581       -1.9505323404
 H         1.4168436253        2.8929107201       -2.8334314057
 H         1.2917639293        2.8558397700       -1.0572295483
 H        -1.4453103288        1.0674331471       -3.0711983309
 H         0.0507599885        1.2629299059       -4.1061922982
 H        -0.3226545865       -0.2506159092       -3.3596351687
 H         0.7628637299        0.4330882759        1.8254420029
 H         1.6312951909        1.3388240891        0.6448264771
 H         0.3890305609        0.5864394574        6.0326533869
 H        -0.5054055228        1.2448413065        4.5547271308
 H         4.1614239043        2.0378167726        2.4698212469
 H         3.0936193249        0.9530759357        1.8227882478
 H         3.8809447752        0.5705838481        3.3078629263
 H         1.4074680009        3.1612767139        5.1091454915
 H         2.8981694224        2.4355763615        5.3873651256
 H         2.8710316289        3.6839867233        4.1513675643
 H        -1.0405931973       -1.1939677318        5.6973328010
 H         0.4919580770       -1.6055484598        4.8781324201
 H        -4.4215762608       -4.4027692474        3.1555874948
 H        -3.4309381044       -4.1424765062        4.5735860339
 H         0.0403538787       -3.2048592319        1.6416629481
 H        -1.1092625858       -1.9135180094        1.1624578768
 H        -1.5758696940       -3.5885562277        0.9628934896
 H        -1.0131835659       -4.9103471143        3.4286367116
 H         0.0740493085       -3.7293549499        4.1505353322
 H        -1.4252251913       -4.0922209795        4.8658490813
 H        -6.0719403320       -2.7981125901        4.1784069074
 H        -5.4540782884       -3.6581394259        5.5355415214
 H        -5.2917984469        1.9009170580        6.5527451132
 H        -4.0863135612        0.9783086853        5.6066897648
 H        -7.4583231652       -1.8945159716        5.5158834075
 H        -7.6206828799       -0.9553893224        7.0851842956
 H        -6.7152170824       -2.5002190349        7.0156079256
 H        -5.4000117497       -1.1302437616        8.3927688617
 H        -4.1521493520       -0.5480956197        7.4947228767
 H        -5.4709794769        0.5253493011        8.0426780502
 H        -4.3180725816        3.3772661369        4.8420704717
 H        -6.0724677116        3.1837449272        4.5370961688
 H        -6.1053531365        1.1427518965        0.1183214229
 H        -6.2359671540        2.5546650077       -0.8537563800
 H        -7.0135028801        3.9464783710        0.8874595854
 H        -7.1937618065        3.5992178980        2.6711013423
 H        -7.1576836112        2.1556688689        1.4646713506
 H        -3.9413631738        4.5064363595        2.8143909541
 H        -4.3211941424        5.0263336299        1.2074304303
 H        -5.4985545347        5.2433290685        2.5196774989
 H        -4.8227251013        1.5497786267       -2.5696510638
 H        -3.6551759314        1.0861738964       -1.3642632164
 H        -6.2066395227       -3.2262301881       -4.5644463828
 H        -6.4914793493       -1.6876162779       -5.5083597257
 H        -4.9986103008       -2.8312989635       -5.6565786181
 H        -7.3021673050       -2.9680789574       -2.4071155419
 H        -6.2812865178       -2.7320055183       -1.0464725748
 H        -5.4831231177       -3.4680299348       -2.2389213516
 H        -7.0766126247        0.1491927894       -4.0496945625
 H        -7.9463506557       -1.0305532178       -2.8482656688
 H        -7.1926477345        0.5316232933       -2.4131675091
 Na       -3.1311924111       -0.0812216037        1.0325640602
