155

 C        10.7792989986        1.6770126519       -6.7751640122
 C         9.3176339534        1.7889631182       -6.4167475651
 C         8.7935404980        1.9255729579       -4.9534854741
 C         8.8926503333        0.4768966561       -4.4003110292
 C         7.7541801004       -0.3004487320       -3.7939817948
 C         9.6640782517        2.7876951499       -3.9353404092
 C         7.3755441983        2.5086807409       -4.9938093484
 O         8.5191219971        1.5833173384       -7.3170643255
 O        10.0164146732       -0.0157150563       -4.3633123905
 C         6.9281490492       -0.7979780652       -4.9852009149
 C         5.9088446642       -1.9087000907       -4.6020438842
 C         4.6892516618       -2.0876080765       -5.5458809826
 C         3.6158868254       -1.1377742307       -4.9491762765
 C         3.1136491256       -1.2134261202       -3.4793546368
 O         6.1320283014       -2.4871173060       -3.5677442652
 O         3.0297163011       -0.3937771024       -5.6997348986
 C         4.9044137180       -1.7930339389       -7.1359655213
 C         4.0513851074       -3.5781338107       -5.3397738331
 C         2.2768268849        0.0052236823       -3.2882753295
 C         1.3022117299       -0.0054827054       -2.0329640129
 C        -0.0499498919        0.8334211223       -2.1490129395
 C        -0.6607648970        0.7835580356       -0.6196757219
 C        -0.2433578794        1.6948999130        0.4560531227
 C         0.0748871832        2.2413117602       -2.7110660363
 C        -0.9345952037       -0.0266846710       -3.0317690608
 O         1.4238239442       -0.7819848459       -1.1150344548
 O        -1.5919133829        0.0058690852       -0.5248403169
 C         0.8287813698        1.1691998103        1.3694273939
 C         1.1253388722        2.1018955930        2.5956456242
 C         2.2747821067        1.6230853126        3.8013092206
 C         1.7511361867        0.2977231953        4.2873337416
 C         0.5591639008        0.2417922703        5.2153219697
 O         0.3465036270        2.9900714978        2.7315710090
 O         2.2541049677       -0.7135414319        3.8436772572
 C         3.6443448383        1.5865388855        3.0910809948
 C         2.3006500839        2.8097015391        4.8323549093
 C        -0.3141475882       -1.1609696354        5.0323423473
 C        -1.2207641035       -1.2305061087        3.7332425111
 C        -1.5661861169       -2.6511849443        3.0607870437
 C        -3.1960983627       -2.7804808008        2.9678454913
 C        -3.9031632571       -3.6645533188        3.9557765683
 C        -0.9636258923       -2.5274219869        1.5598460342
 C        -0.9816237489       -3.7092557418        3.9752485088
 O        -1.5665866854       -0.2073402765        3.2065243748
 O        -3.8281495966       -2.1051019260        2.1714662860
 C        -4.9977198316       -3.0100831728        4.8428235436
 C        -4.7120283446       -1.6481974918        5.4733126422
 C        -6.0370823494       -0.9894614742        6.2010940459
 C        -6.3608965514        0.2958423024        5.2232837300
 C        -5.2512736485        1.4113638072        5.1860717736
 O        -3.5778082364       -1.2267112366        5.6828465261
 O        -7.3893700857        0.3949744001        4.6685504895
 C        -7.3172776252       -1.8455973853        6.2661149760
 C        -5.5581105910       -0.4374515183        7.5149485265
 C        -5.4810539061        2.5362410166        4.1287685217
 C        -5.0276577370        2.0754978435        2.7974441085
 C        -5.4016243312        3.0284496138        1.5146518969
 C        -4.6606608976        2.3390069560        0.3003967650
 C        -5.4275860572        2.2665334332       -1.0696280282
 C        -6.9971245272        2.8910019824        1.3980787039
 C        -4.9979150646        4.5357887250        1.6488816887
 O        -4.4165990240        1.0056497683        2.6710386264
 O        -3.4425379341        2.2503784371        0.2145583673
 C        -4.8457267369        1.2274735200       -2.0030510513
 C        -5.1551080867       -0.2700197494       -1.5559610405
 C        -6.0285403595       -1.2155420808       -2.5510833177
 C        -5.0614375537       -1.3980949983       -3.8538647277
 C        -5.3645829318       -2.6250780746       -4.8285419379
 O        -4.7435131168       -0.6684899305       -0.5378467400
 O        -4.2079190537       -0.5466967246       -4.0445592501
 C        -6.6169312606       -2.5295893979       -1.8274181931
 C        -7.2865835213       -0.4578825649       -3.0337402463
 H        11.0870166922        2.5417060819       -7.4515127272
 H        11.4082421164        1.8135051343       -5.8923644501
 H        10.9827807772        0.6839242485       -7.1209045226
 H         8.2379672450       -1.1232428990       -3.3255102147
 H         7.1994196857        0.3634911405       -3.0200605546
 H         8.9956609828        3.2675273456       -3.1932891464
 H        10.2818352275        3.4869700872       -4.5552735289
 H        10.2875234223        2.1713316565       -3.2535559269
 H         6.6552584362        1.8770253849       -4.4486949006
 H         7.3478006049        3.5464106937       -4.6432544737
 H         7.0653591766        2.5971977095       -6.0571279073
 H         6.5047423803        0.0102175472       -5.6097429782
 H         7.7322612974       -1.2404720858       -5.6385025964
 H         2.5918904331       -2.1117244215       -3.3911035475
 H         3.9698996554       -1.1276260116       -2.8051359845
 H         3.8582742949       -1.7050841353       -7.5175422549
 H         5.4787813712       -2.5033862010       -7.6272894925
 H         5.3476705887       -0.8638817146       -7.2645857667
 H         3.0514681872       -3.6289208599       -5.8931255249
 H         4.6619016045       -4.4192199200       -5.7365611294
 H         4.0446770762       -3.8288025176       -4.2540113219
 H         1.6938964538        0.1856621766       -4.1761140050
 H         3.0284962202        0.8514950421       -3.2802625184
 H         0.0728224572        2.7549092809        0.0910044920
 H        -1.1262021965        1.9010923113        1.0688279601
 H        -0.7905667324        2.8140610047       -2.4448436270
 H         0.1326823902        2.2789862920       -3.7257291724
 H         0.9581842867        2.8299627753       -2.3335563931
 H        -0.3477118617       -0.8142612324       -3.5313465028
 H        -1.6922341931       -0.5534945376       -2.4979297970
 H        -1.4008850904        0.6583875987       -3.6877167464
 H         0.5632582068        0.1498404468        1.6325488823
 H         1.6940391039        1.0333537665        0.7598638949
 H         1.1403266781        0.0528993735        6.1977872567
 H        -0.0043285786        1.1789964419        5.2273552579
 H         3.7592195873        2.5749952082        2.7073855551
 H         3.9079467663        0.8158153250        2.5025365689
 H         4.3658205009        1.5660530814        3.8582595454
 H         1.2805315261        3.0412231353        5.1450583626
 H         2.8922566169        2.4841605914        5.6701717467
 H         2.7529191703        3.7321382790        4.5050659258
 H        -0.9904424425       -1.1652367682        5.8974077578
 H         0.4441234109       -1.9976320071        4.9817646884
 H        -4.3246962442       -4.5590518032        3.4542963085
 H        -3.1151852153       -4.2344818089        4.6064079652
 H        -1.7515165146       -2.6418363357        0.8540917997
 H        -0.4478619930       -3.4845915450        1.4523891818
 H        -0.1591391497       -1.8056679772        1.4653573406
 H        -1.5063644938       -4.7076173753        3.8809253509
 H        -0.0064280194       -3.9745066247        3.7446680672
 H        -1.0910688701       -3.4252339064        5.0049968075
 H        -5.9188312242       -2.8834360513        4.2432243439
 H        -5.2496800148       -3.6427675065        5.6741213956
 H        -5.2796920253        1.7315166584        6.2888811397
 H        -4.2566482358        1.0141805757        4.9344562291
 H        -7.4244605424       -2.4961948752        5.3951790479
 H        -8.1095316149       -1.1345641654        6.2159385802
 H        -7.2639547144       -2.2917443578        7.2118288478
 H        -5.6343033151       -1.2945288271        8.1856943785
 H        -4.6024877358       -0.0750130144        7.5455475317
 H        -6.1284630257        0.3553206436        7.9738000938
 H        -4.7323460165        3.2664112645        4.4365052058
 H        -6.4534281976        3.0517003111        4.0306613358
 H        -6.5341680331        2.0140535461       -0.9547329541
 H        -5.3980770970        3.2571549916       -1.5452223682
 H        -7.3438906597        3.6702415558        0.7399039639
 H        -7.3796507005        2.8855183367        2.3796259823
 H        -7.0810898661        1.8694550993        0.9505228884
 H        -4.0528602993        4.7392884391        1.1721441853
 H        -5.8167569870        5.1621036713        1.2383009419
 H        -4.9301593262        4.8403992934        2.7155464907
 H        -4.9234273754        1.3623015014       -3.0475089221
 H        -3.7532432468        1.3030497839       -1.7866679258
 H        -4.4470208290       -3.2440549574       -5.0449692409
 H        -6.1700911074       -3.2209859054       -4.4570505786
 H        -5.6130442203       -2.1834484511       -5.8402174730
 H        -7.4723015762       -2.9106451125       -2.4608517250
 H        -6.9427445358       -2.2959568637       -0.7946149271
 H        -6.1088986901       -3.4924213249       -1.8416827578
 H        -7.1244298938        0.2764699969       -3.8332263513
 H        -8.0398691941       -1.1323879799       -3.4305835226
 H        -7.7258471356        0.0454523465       -2.1079693320
 Na       -3.0309711289       -0.3040413896        1.2076933445
