155

 C        10.1095248698        3.4230035504       -7.0760155525
 C         9.7990396903        3.6243213917       -5.5820042054
 C        10.8342935610        3.0609905783       -4.5732723225
 C        10.3980115219        1.6491976447       -4.2966008788
 C         8.9371936703        1.5514217311       -3.7773254713
 C        12.1839441584        3.0468537110       -5.2300228558
 C        10.9088575801        4.0486759922       -3.4115799753
 O         8.7108721949        3.9986416074       -5.2158781510
 O        11.1669263998        0.6790274709       -4.3960223106
 C         8.1495237303        0.6146007349       -4.7404849057
 C         7.0028416160       -0.1449999664       -3.9583228133
 C         6.1961960157       -1.3473559701       -4.6459284967
 C         4.6819140992       -0.8688256081       -4.8038732241
 C         3.7650554123       -0.7947493342       -3.5217888303
 O         6.7268341310        0.2095146970       -2.8326578937
 O         4.1001281990       -0.5649827653       -5.8205516311
 C         6.8717421867       -1.8683048219       -5.9146029479
 C         6.1893497713       -2.6392189597       -3.7160292345
 C         2.3072970456       -0.3854835554       -3.8280193549
 C         1.4485999675       -0.3195254006       -2.4445354655
 C        -0.1245650851       -0.0526380357       -2.5631559163
 C        -0.8694539114        0.1475441427       -1.2195316912
 C        -0.2782540737        1.3291078125       -0.2945125421
 C        -0.4333716863        1.2027752331       -3.4084040403
 C        -0.7586662945       -1.3287210769       -3.3193539782
 O         1.9552509329       -0.4827154334       -1.3999461491
 O        -1.8861490202       -0.4718752369       -0.9154430026
 C         0.5292327538        0.6855034619        0.8666911515
 C         1.0467983051        1.7036581953        1.8321470468
 C         1.9597623359        1.2062643982        3.0961291325
 C         1.2974203984       -0.1356983802        3.6091916657
 C         0.1133526550       -0.0021547048        4.6188087983
 O         0.8758047537        2.9050573539        1.6699754396
 O         1.7592939041       -1.2157037216        3.3042827474
 C         3.4217701555        0.9714547861        2.6706326351
 C         1.9557691799        2.3943266612        4.1037867970
 C        -0.4500804715       -1.3661715846        4.7798789361
 C        -1.4656468105       -1.8024275344        3.7367466815
 C        -2.2051980719       -3.1753710800        3.6754517174
 C        -3.8336908431       -2.8571473767        3.5654049562
 C        -4.8437606005       -3.5602998713        4.3521207859
 C        -1.7702496986       -3.8974172646        2.3104140116
 C        -1.8707258879       -4.1042113630        4.8997462603
 O        -1.5083632417       -1.1416784092        2.6494504817
 O        -4.2674060774       -2.1194830730        2.6613295687
 C        -6.1210409805       -2.6057953845        4.5578943960
 C        -5.8814593383       -1.6901372024        5.7428434986
 C        -6.8840265951       -0.6576283292        6.1843514360
 C        -6.8972404591        0.2815843758        4.9128852235
 C        -6.2552893967        1.7172385981        5.0182650896
 O        -4.7701633269       -1.6934793017        6.2476614692
 O        -7.5550401874        0.0225402722        3.9373374425
 C        -8.3423390025       -1.2211984173        6.4224444288
 C        -6.3809549915       -0.0189116288        7.5605375901
 C        -6.3363455334        2.5303550608        3.6789849098
 C        -5.6552264090        1.7793074749        2.5259987161
 C        -6.1451410408        2.2952341537        1.1676946393
 C        -4.9979144272        2.0741466270       -0.0481558244
 C        -5.6527023398        1.8660108825       -1.5492576330
 C        -7.5284141977        1.6476891658        0.8283978347
 C        -6.5919250387        3.7456199986        1.2568319164
 O        -5.0157042798        0.7729292587        2.7245077531
 O        -3.8606560527        2.0241145559        0.2890133034
 C        -4.8587131137        0.6245698160       -2.1458050701
 C        -5.3551972701       -0.6756703895       -1.4721362603
 C        -6.1475116726       -1.6508007046       -2.2799131977
 C        -5.4421046189       -2.1172583409       -3.5431630185
 C        -6.0536628020       -2.9437794151       -4.7602212168
 O        -5.0511171548       -1.0376542202       -0.3583684386
 O        -4.3551604614       -1.5801623034       -3.8415336075
 C        -6.5823127175       -2.8459457211       -1.3721656289
 C        -7.4810726312       -0.8555799952       -2.6916393831
 H        10.7938627529        4.0715900215       -7.4642774018
 H        10.3688024566        2.3411631840       -7.1211954553
 H         9.0871240364        3.5004216136       -7.6066038961
 H         8.9259855356        1.0182371381       -2.8258740069
 H         8.5227683608        2.5325893879       -3.5797723377
 H        12.9454189017        2.9364340457       -4.4364652636
 H        12.3992761309        3.9835886677       -5.8056067784
 H        12.4119213110        2.1998127280       -5.9476654057
 H        11.5601918445        3.5953015911       -2.6932616835
 H        11.2095858129        5.0614194889       -3.7317095085
 H         9.9530691808        4.2086230841       -2.8455438654
 H         7.7500912314        1.0738810049       -5.6870682573
 H         8.7683066539       -0.2551072705       -5.0264195236
 H         3.7122862900       -1.8353970431       -3.0934472038
 H         4.1826583328       -0.1004363615       -2.8493435234
 H         6.2137476057       -2.7593092169       -6.2378470254
 H         7.9126770261       -2.1301502527       -5.8623207156
 H         6.8547353394       -1.1798919089       -6.7295554990
 H         5.8443646041       -3.4447389132       -4.3918422518
 H         7.2102998574       -2.9147395682       -3.6049519714
 H         5.7094017077       -2.6160676858       -2.7735476026
 H         1.7434754413       -1.0955278524       -4.4704024404
 H         2.1989428618        0.5236982503       -4.3457258064
 H         0.2956891108        2.0066001361       -0.9433626506
 H        -1.1935107234        1.8125482841        0.1580156943
 H        -0.0689129427        0.9026221553       -4.4616795059
 H         0.0883127150        2.0365617525       -2.9057542425
 H        -1.5060417218        1.4503944966       -3.4206756232
 H        -0.7532756183       -2.2245631842       -2.7346541002
 H        -1.7912229187       -1.1602070351       -3.5266142989
 H        -0.1574372402       -1.5715927087       -4.2057881022
 H        -0.1515172038        0.0748176345        1.4188111766
 H         1.4614217154        0.1342875656        0.6210860975
 H         0.3610882816        0.5242561997        5.5409604447
 H        -0.7115092469        0.5871633225        4.0927883101
 H         3.9120169413        1.8808141568        2.3793619956
 H         3.5034088972        0.0711750417        1.9777874392
 H         4.0252475178        0.8666194933        3.5952991431
 H         0.9528109364        2.4904511934        4.4877095863
 H         2.5221164832        2.2611210267        5.0167765576
 H         2.3664514571        3.2265410893        3.5732752819
 H        -1.1023705120       -1.4943300569        5.6738757458
 H         0.1823403275       -2.1846958975        4.8463634282
 H        -5.1844420659       -4.5008093695        3.9027598471
 H        -4.3297811437       -3.9536677140        5.3183726716
 H        -1.1897052667       -3.3548557554        1.6048535066
 H        -2.7138722082       -4.1432386194        1.7510408506
 H        -1.1480343547       -4.8133986271        2.4386536660
 H        -2.4007326639       -5.1265879366        4.8147538308
 H        -0.8587564368       -4.3493978643        4.9350012092
 H        -2.2577346669       -3.6298870407        5.8103387112
 H        -6.2519749123       -2.0121983333        3.6610325185
 H        -7.0673848589       -3.1115086372        4.6612314466
 H        -6.7955741308        2.3315909804        5.7350001051
 H        -5.1776723569        1.6693197604        5.3438494967
 H        -8.7191594396       -2.0568202625        5.7869664460
 H        -9.0017107441       -0.4418692071        6.2281090687
 H        -8.4160813060       -1.6127562746        7.3923059039
 H        -6.1331131326       -0.8372633016        8.2865336474
 H        -5.5353504143        0.5662359961        7.3700100254
 H        -7.1524423892        0.5717594238        8.0020744608
 H        -5.9005866290        3.4807111365        3.7917814305
 H        -7.3984726902        2.6495292596        3.5810934945
 H        -6.5994769694        1.5253914074       -1.3189925125
 H        -5.5790525058        2.8484080916       -2.1545412045
 H        -8.0464939877        2.0415926013       -0.0415964233
 H        -8.1846195738        1.6204189116        1.6552743410
 H        -7.2576947544        0.5977648976        0.5168831263
 H        -5.9253015269        4.4393521284        1.7839056806
 H        -6.6843731426        4.0591601471        0.2428307992
 H        -7.6116302939        3.8219778276        1.6561163225
 H        -4.9324751124        0.4645798066       -3.2382323902
 H        -3.7793387836        0.7670573800       -2.0142720201
 H        -6.7699467128       -2.3762047657       -5.3666775230
 H        -5.2544618305       -3.2096554126       -5.4289110413
 H        -6.6321966460       -3.8379656048       -4.4063534932
 H        -6.1700511610       -2.6963925368       -0.3378389671
 H        -6.3115350465       -3.7703298099       -1.7622355403
 H        -7.6261606333       -2.9206297411       -1.2420317343
 H        -7.3602675668        0.1535414663       -3.1632419910
 H        -8.0928969257       -1.5292247435       -3.3081230984
 H        -7.9187982001       -0.5869084215       -1.7575857191
 Na       -3.2099366149       -0.4024718515        1.2159406937
