155

 C         9.6140044305        3.8504930211       -6.9933748137
 C         9.9167925057        4.1370688479       -5.4746949997
 C        10.9660643252        3.2293693270       -4.7430291112
 C        10.2843050410        1.9964703632       -4.2637637959
 C         8.6917889315        1.9377200151       -3.9323858572
 C        12.1563273422        2.8932368751       -5.7232915415
 C        11.5804402806        4.0218477993       -3.5089301392
 O         9.3165875306        5.0271983989       -4.9233704621
 O        10.9449531641        0.9666412602       -4.1349167013
 C         8.2807416494        0.5300129148       -4.2912946189
 C         7.0133194163        0.0092117477       -3.7169484774
 C         6.1091287250       -1.1032255221       -4.4359935103
 C         4.6420064253       -0.7325447965       -4.3333099185
 C         3.8301217677       -0.8102616025       -2.9760283109
 O         6.5635038766        0.4319461823       -2.7099863030
 O         4.1269153921       -0.2710589405       -5.3442984894
 C         6.5017967471       -1.3763173689       -5.9298984498
 C         6.3044647292       -2.4154565458       -3.5010291603
 C         2.4934117489       -0.0654347917       -2.9171272130
 C         1.4146923006       -0.7743590321       -2.0604139861
 C         0.0079484679       -0.1885796305       -2.5264236209
 C        -0.7266137508       -0.0247111857       -1.1254276564
 C        -0.2007404419        0.9626092308       -0.1777549536
 C        -0.0261566573        1.2396108476       -3.2638917464
 C        -0.6821135034       -1.2135474218       -3.4906772910
 O         1.6407836151       -1.5059181858       -1.1220681372
 O        -1.7170409546       -0.7185244165       -0.9476214642
 C         0.4712254000        0.4224418258        1.0906243880
 C         1.0304410305        1.6279489328        1.9492473345
 C         1.9170081004        1.1661753029        3.2187206079
 C         1.3760718903       -0.1252286540        3.8842147678
 C        -0.0791988587       -0.0464335747        4.3207114723
 O         0.6304602650        2.7409177079        1.7716826590
 O         2.0357519865       -1.0931202846        4.1103061451
 C         3.4293973628        0.9108409644        2.8257686990
 C         1.8820746870        2.3638629497        4.2388878910
 C        -0.6123087068       -1.4461088030        4.5327133310
 C        -1.6693028114       -1.7514276841        3.4161287848
 C        -2.4032280810       -3.1017686182        3.4430449714
 C        -3.9215747696       -2.8076758555        3.5167167448
 C        -4.7520090265       -3.4408063103        4.6120310653
 C        -2.0090443330       -3.6898280612        2.0586831864
 C        -1.9570626141       -4.0050548054        4.5619001619
 O        -2.0639063512       -0.8177062980        2.7353808829
 O        -4.4247825111       -2.0468513344        2.6609696004
 C        -6.1140138035       -2.7487384712        4.7988083943
 C        -5.7459940669       -1.5728624341        5.6885410067
 C        -6.8285248601       -0.7097030455        6.2533822715
 C        -7.0235644521        0.4088887700        5.0049263102
 C        -6.2562355978        1.7478710870        4.8528888484
 O        -4.6071351690       -1.0899985955        5.6510901826
 O        -7.9305355478        0.0455848389        4.3398067284
 C        -8.2080358348       -1.4261440828        6.4468006303
 C        -6.2943351988       -0.0720247530        7.5250270384
 C        -6.3559594016        2.3769609137        3.4991031442
 C        -5.5528930112        1.6750523801        2.3310640823
 C        -6.0863672103        2.0819497123        0.9147876419
 C        -4.9018121829        1.8958628047       -0.1796781175
 C        -5.1449653696        1.7260753316       -1.7117388028
 C        -7.1179576024        1.0404388185        0.5756622491
 C        -6.4461659025        3.6634919549        0.7526921973
 O        -4.6415321257        0.9205892912        2.4163664440
 O        -3.6919452088        1.8811993860        0.0864076896
 C        -4.6965722021        0.3769639603       -2.2790189176
 C        -5.3841624444       -0.8378826917       -1.7398939472
 C        -6.2132263426       -1.8636721317       -2.5386854024
 C        -5.5531198850       -2.3601779409       -3.9247051946
 C        -6.2703582556       -3.4341468864       -4.6587065429
 O        -5.2881969762       -0.9864410308       -0.5172420143
 O        -4.3749659893       -1.9821735560       -4.1204559364
 C        -6.8434007701       -3.0392071578       -1.7745570325
 C        -7.3183792805       -0.8200997702       -3.1909609735
 H        10.4446110410        4.3253773672       -7.4804539119
 H         9.5187798103        2.7739320406       -7.1936889189
 H         8.7226332940        4.5120336721       -7.2188882440
 H         8.6388350087        2.2016838495       -2.8458008420
 H         8.2398503366        2.6884914559       -4.5348385735
 H        12.9985975359        2.6891008810       -4.9830644349
 H        12.4782370480        3.6771476834       -6.4340276343
 H        12.0642008933        1.8886723086       -6.2038108850
 H        11.9632640535        3.2963301661       -2.7320741740
 H        12.4501009878        4.6357786603       -3.7212536358
 H        10.7810117838        4.5458841236       -3.0213292221
 H         8.1322844422        0.4545702657       -5.3637675880
 H         9.1711694546       -0.1758660555       -4.2642282958
 H         3.5961923934       -1.8183930855       -2.9033298534
 H         4.6594596661       -0.6200961494       -2.2372461296
 H         6.0874692015       -2.3303430878       -6.2681179678
 H         7.5919292526       -1.4141635053       -6.2179594726
 H         5.8820082036       -0.6713055750       -6.5288180344
 H         5.7751161025       -3.1988792405       -3.9088825068
 H         7.3012100720       -2.6633808713       -3.1581071293
 H         5.8060467119       -2.1751673796       -2.5743374800
 H         2.0892221929        0.1168926583       -3.8430427312
 H         2.6579633180        0.9206384332       -2.4812991740
 H         0.3588015053        1.7248981073       -0.7619604622
 H        -1.1678339763        1.4726194090        0.0827559889
 H        -0.0825195727        1.1988145709       -4.3405520318
 H         0.8665272881        1.7551979831       -2.9358082975
 H        -0.9730751919        1.7914359026       -2.8354945892
 H        -1.0227927391       -2.0324055197       -2.9103969688
 H        -1.4780135864       -0.7433201568       -4.1020565108
 H        -0.0300353669       -1.6628086598       -4.2420276220
 H        -0.2918606233       -0.1131289525        1.7877925696
 H         1.2658799075       -0.2730686401        0.8668618835
 H         0.1071069736        0.3754383336        5.3791964967
 H        -0.7332631625        0.6399069344        3.8028202770
 H         4.0046711258        1.7679433448        2.2889003823
 H         3.4847698233        0.0027753778        2.2165130905
 H         3.8449004288        0.5348676509        3.7929008915
 H         0.9482398572        2.4964935279        4.7538566126
 H         2.7220978762        2.2125293440        4.9227554767
 H         1.8627539945        3.2721990542        3.6517474768
 H        -1.2515076630       -1.4840251871        5.4116410374
 H         0.2007655875       -2.2605145264        4.6877384298
 H        -4.6998022854       -4.4769178938        4.3202964696
 H        -4.2928314186       -3.3159180496        5.5261803498
 H        -2.5344444742       -3.1963601850        1.2044470318
 H        -2.1139155658       -4.7668925156        2.0308964740
 H        -0.8854406279       -3.5538703219        1.8642377305
 H        -2.5530847454       -4.8765184745        4.3580319039
 H        -0.8950981114       -4.3769780484        4.4940664867
 H        -2.0787648171       -3.6605979321        5.6090397314
 H        -6.5934041191       -2.2877400166        3.9269509753
 H        -6.8332576800       -3.3997178842        5.2884237514
 H        -6.5778697521        2.4325552054        5.7286283462
 H        -5.2301416480        1.4511832217        5.1261464544
 H        -8.4814729723       -2.1112672383        5.6908834874
 H        -8.9895229057       -0.6873489682        6.5496108181
 H        -8.2360674081       -1.8928176043        7.4220984787
 H        -5.8113386411       -0.8415279375        8.0738935345
 H        -5.4831151248        0.6595774221        7.2658493063
 H        -7.1069697761        0.4420209108        8.0165290270
 H        -6.1439949402        3.4385854791        3.5505605734
 H        -7.4046221897        2.3925551308        3.2868781050
 H        -6.1795806559        1.9016854090       -1.9822284782
 H        -4.5684951006        2.4440833397       -2.2616818020
 H        -7.3790867859        1.2040446848       -0.5039537424
 H        -8.0363517922        1.0903484346        1.1867339684
 H        -6.6705992596        0.0244016742        0.7989912524
 H        -5.5485288815        4.2743627667        0.9505660680
 H        -6.7436526266        3.9086923812       -0.2998516312
 H        -7.2231261825        3.9546520107        1.4119015549
 H        -4.6722886311        0.5135256082       -3.3520062533
 H        -3.6902806225        0.1825560022       -1.8394966739
 H        -5.9668654282       -4.3197947415       -4.1874199620
 H        -7.3737565121       -3.3875466390       -4.4847857589
 H        -6.1580570390       -3.3762952708       -5.7348860350
 H        -6.4332646731       -4.0223457870       -1.7809142055
 H        -7.8403429852       -3.2718457123       -2.1791169947
 H        -6.9576693457       -2.7340641903       -0.7179894941
 H        -6.7211941834       -0.2733651465       -3.8896881845
 H        -8.1248587064       -1.3156958594       -3.7238818982
 H        -7.7904522444       -0.2197938906       -2.4080117473
 Na       -3.5280715500       -0.6773756873        0.9275926554
