155

 C         9.4953495946        4.6348731980       -6.5328013015
 C         9.9308862817        4.7331666748       -5.0367336714
 C        10.9705336779        3.6022181728       -4.6246924266
 C        10.1886091283        2.2572065786       -4.7952318061
 C         9.3052289690        1.7263810766       -3.5556719636
 C        12.2348570278        3.6662286567       -5.5543549407
 C        11.3190316071        3.8227727951       -3.1758750121
 O         9.5399624963        5.6304667098       -4.3049026196
 O        10.2152709905        1.7020502070       -5.8704780956
 C         8.3868883976        0.5984814926       -4.0074227689
 C         7.0754132556        0.6954879764       -3.2187891330
 C         6.0700124891       -0.5206326564       -3.4648920251
 C         4.5434671341       -0.0589511319       -3.2936364914
 C         3.9576938493        0.3848656922       -1.9968383013
 O         6.9573172973        1.3889956700       -2.2492928082
 O         3.9491775128       -0.0279349038       -4.3634939855
 C         6.2449130029       -1.1180442422       -4.8256453137
 C         6.3473786758       -1.5067650319       -2.3403226077
 C         2.5266944628        0.7643562199       -2.3053128368
 C         1.5750918211       -0.3537731491       -1.8161529498
 C         0.0335947530       -0.2983081359       -2.2029896059
 C        -0.9379513268       -0.2407301211       -0.9108333973
 C        -0.5183982999        0.6677019074        0.1720963697
 C        -0.2222711759        0.8848560435       -3.2038362926
 C        -0.2113710378       -1.5720512235       -3.1152114716
 O         1.9877316871       -1.3204955290       -1.2391839132
 O        -2.0833503608       -0.7319374798       -0.9563317098
 C         0.6948600641        0.2897912428        1.0157654945
 C         0.8054802190        1.3072211093        2.2233208142
 C         1.6487956887        0.7655835952        3.4079756722
 C         0.9090131755       -0.4864195893        3.9753849828
 C        -0.2288819578       -0.2067006481        5.0377542754
 O         0.2029716458        2.3443288043        2.3581958398
 O         1.0522295718       -1.5943024357        3.4427480526
 C         3.0532515668        0.4203399353        2.7220128754
 C         1.7773398983        1.8449535731        4.5631755214
 C        -1.2858519813       -1.4347615688        5.0801036925
 C        -1.7731867896       -1.9092938627        3.7276486330
 C        -2.3148085228       -3.4355880478        3.4126938521
 C        -3.7934139028       -3.3579229453        3.4834735138
 C        -4.5922282015       -3.4442961791        4.7983063705
 C        -1.6946519047       -3.7715239445        1.9696325170
 C        -1.7175404122       -4.4975326028        4.4592125972
 O        -1.9077305101       -1.1221879041        2.7482262289
 O        -4.3685796632       -3.1056756178        2.4054501701
 C        -5.8318118686       -2.4201648589        4.7173863743
 C        -5.5104237990       -1.0900076474        5.3117594096
 C        -6.7599016293       -0.1537218297        5.6594879291
 C        -6.7818929060        0.8507507465        4.4523882824
 C        -5.7533628479        2.0252141818        4.3996667290
 O        -4.3718546917       -0.6018336545        5.4072151269
 O        -7.4614106768        0.6341429479        3.5053522602
 C        -8.0869369790       -1.0629165472        5.8073590646
 C        -6.3783373853        0.6106542556        6.9396780720
 C        -5.5308921405        2.5586796065        2.9427217554
 C        -5.5313301121        1.5019187485        1.8642731848
 C        -6.1128403533        1.8590532859        0.4403381326
 C        -4.9870549965        1.7300073223       -0.7047411676
 C        -5.3807373801        1.0876086994       -2.1285240122
 C        -7.3410895547        0.9621080840        0.2051861618
 C        -6.6281777137        3.3435160301        0.2114540466
 O        -4.9265492417        0.5030255477        2.0888395157
 O        -3.8337068154        2.0976975020       -0.4924978575
 C        -4.6213003790       -0.1737888310       -2.5403554733
 C        -5.2733025681       -1.3982315186       -1.9301111462
 C        -6.3502190916       -2.1385243701       -2.9127722566
 C        -5.2064230168       -2.7893807319       -4.0032459361
 C        -5.6169430298       -3.9545669436       -4.9627002962
 O        -5.0228290807       -1.9787382424       -0.8530700561
 O        -4.0873895175       -2.4044272522       -4.0342645398
 C        -7.1531256503       -3.1835708957       -2.1907924124
 C        -7.4555685140       -1.3351460842       -3.8245947395
 H        10.0865304265        4.0222914311       -7.1387769172
 H         8.4615698359        4.2790296318       -6.3921129306
 H         9.4184648000        5.7239445878       -6.9593640030
 H         9.9549447676        1.4622392617       -2.7786001505
 H         8.6788511930        2.5934633566       -3.2004269791
 H        12.7832762328        2.7556100687       -5.3917961904
 H        12.7431657956        4.4970791264       -5.1836872966
 H        12.0238343858        3.6974215476       -6.5684635730
 H        11.5941240831        2.9735785044       -2.5237803704
 H        12.0683504519        4.5854754805       -3.0294971225
 H        10.4316318699        4.1456697927       -2.6623629041
 H         8.2307720814        0.6594216029       -5.1275834056
 H         8.8320216126       -0.2234184443       -3.5808175329
 H         3.9779169163       -0.2828548806       -1.1031713076
 H         4.4917749589        1.2912959344       -1.7954356043
 H         5.3698090305       -1.6601853185       -5.0533001352
 H         7.1698969525       -1.7366977428       -4.9144858954
 H         6.2927684107       -0.3268147709       -5.5682353349
 H         5.6567043147       -2.3144752641       -2.4428643599
 H         7.3760347470       -1.9763314439       -2.2799419489
 H         6.3106848176       -1.0372929486       -1.3087622260
 H         2.4026874855        0.6904031448       -3.4258428354
 H         2.2460896703        1.7151193213       -1.8746407699
 H        -0.3421828873        1.7020874301       -0.2020189603
 H        -1.4576635923        0.6525003901        0.7598431113
 H         0.4069281163        0.9301834075       -4.1231357551
 H        -0.1096397223        1.8404615800       -2.7041766253
 H        -1.2517052043        0.8929166453       -3.7543550733
 H         0.4961462079       -2.3220965297       -2.8083661851
 H        -1.2254919633       -1.9978083967       -3.0088010303
 H         0.0293899992       -1.4849079665       -4.1635154482
 H         0.6477765665       -0.6904026427        1.4827491612
 H         1.7140847529        0.3080090131        0.5050554503
 H         0.2252020541       -0.0057519477        6.0044630528
 H        -0.8503179099        0.6944902853        4.7572600150
 H         3.4541880144        1.3381984448        2.2428896518
 H         2.8649429668       -0.3613944261        2.0594230425
 H         3.8102730212        0.1020419164        3.4256759561
 H         0.8367267649        2.1306476802        4.9707178739
 H         2.4194535656        1.4823657293        5.3449502173
 H         2.0655071721        2.7332554819        4.0082708636
 H        -2.2749502924       -0.9575732195        5.2211430553
 H        -1.0098313873       -2.3173364383        5.7145937252
 H        -4.8427684329       -4.4977117127        5.0040275192
 H        -4.0215433476       -3.2010653890        5.6210777010
 H        -0.5994120531       -3.7660159988        2.0442317671
 H        -2.0961567294       -3.1484697045        1.2433212184
 H        -1.9640809279       -4.8013842970        1.7974282672
 H        -2.1701338768       -5.3939832753        4.2021005594
 H        -0.6337903770       -4.6623164054        4.2490649027
 H        -1.8263315855       -4.2332847141        5.5035088621
 H        -6.0901838063       -2.0406266014        3.7104862421
 H        -6.6934682562       -2.9979079199        5.0645798227
 H        -6.0890715330        2.7692719239        5.1581286229
 H        -4.7835264308        1.5777185263        4.7872869006
 H        -8.4221835312       -1.3548645373        4.8419060980
 H        -8.9209153206       -0.4926923910        6.3087668460
 H        -7.8679982769       -1.9679354646        6.4257906607
 H        -6.1064722091        1.6183650779        6.8544465141
 H        -7.2287069129        0.5049237174        7.6708464554
 H        -5.5248494021        0.0765289637        7.3350043931
 H        -4.5607744872        2.9198778930        3.0422546785
 H        -6.2192925314        3.3318357224        2.7824428257
 H        -6.4434710167        0.7449485041       -2.1953491200
 H        -5.1354906787        1.8517215354       -2.7963782130
 H        -7.7678222642        1.2763920766       -0.6764728867
 H        -7.9822430976        1.1315655152        1.0028893918
 H        -7.0631655305       -0.0692147339       -0.0171501052
 H        -5.9220931981        4.1059739408        0.5356492267
 H        -6.8178021962        3.5270266064       -0.8620103323
 H        -7.5950477019        3.5286808210        0.6548894219
 H        -4.5765801746       -0.3595902404       -3.6277589626
 H        -3.5582532959       -0.1341361854       -2.2870602019
 H        -4.8441754653       -4.0241055763       -5.6911157310
 H        -5.5901185320       -4.7641489799       -4.1964144354
 H        -6.5112565944       -3.8600962463       -5.5477420283
 H        -6.6468426708       -3.9948546016       -1.7312704339
 H        -7.8151638969       -3.6730524249       -2.8588010978
 H        -7.7449750689       -2.7921949652       -1.3631352163
 H        -7.0668323332       -1.1708338573       -4.8259944583
 H        -8.4107262982       -1.9038733077       -3.8958451594
 H        -7.6460496651       -0.3835145615       -3.2383339730
 Na       -3.6889221644       -1.3958136563        0.8070809313
