155

 C        10.0531315408        5.6613592875       -6.3768477680
 C        10.0490662495        5.1045960331       -4.9397549986
 C        10.7930004741        3.7327997883       -4.5350026952
 C         9.5912428960        2.6204990241       -4.7465881485
 C         9.0897449194        1.8927465257       -3.5180334398
 C        11.9476293612        3.3194192831       -5.4483840834
 C        11.2690823411        3.7652812766       -3.1109781354
 O         9.2444153880        5.6070641995       -4.1638500366
 O         9.4220128561        2.2299704041       -5.9009903313
 C         8.1761036864        0.7677097528       -3.8899043052
 C         7.0698022971        0.7282229544       -2.8649782360
 C         6.0443153652       -0.4893613801       -3.0478663590
 C         4.5936622558        0.1759932472       -3.3340283988
 C         3.9129957469        0.9168340778       -2.1573042182
 O         6.9323768119        1.6054219364       -2.0713571535
 O         4.0764801614        0.0051376402       -4.3891863730
 C         6.3811595774       -1.4748871069       -4.2125796523
 C         6.0616896835       -1.2863448398       -1.6678087761
 C         2.4513871586        1.0633207563       -2.5987796143
 C         1.6591347832       -0.0900491824       -2.0070947595
 C         0.0975939503       -0.1138574367       -2.3874412005
 C        -0.6242580992       -0.1562719372       -1.0419833231
 C        -0.3433039493        0.9235623108       -0.0597912962
 C        -0.4284190470        1.1123605789       -3.1400113761
 C        -0.0645419520       -1.4361640407       -3.1835173798
 O         2.0741087904       -0.9380763409       -1.2804087062
 O        -1.3492085509       -1.1162428909       -0.8022835660
 C         0.0943041326        0.2367041611        1.2441453373
 C         0.6008477114        1.2613859958        2.3580882462
 C         1.6258025275        0.7087303407        3.3701610101
 C         1.0031294981       -0.7250729510        3.8935084470
 C        -0.2247849040       -0.4525279979        4.9414706922
 O         0.1889903898        2.4367538068        2.3628744711
 O         1.3223931903       -1.8168628605        3.5207427824
 C         2.9764355990        0.5471659424        2.6360053332
 C         1.9349180634        1.7097871973        4.4880136428
 C        -1.1695913580       -1.7024655800        5.0794204397
 C        -1.8499815503       -2.1624107140        3.8778946889
 C        -2.5612424685       -3.5301613193        3.7425041609
 C        -4.1402070452       -3.2224503728        3.4594881054
 C        -5.3659538041       -3.7201691029        4.2797744564
 C        -2.0519341081       -4.2771099313        2.4073709599
 C        -2.3934658268       -4.5107186480        4.9879348380
 O        -1.6948498599       -1.5070253659        2.8739356768
 O        -4.3565895474       -2.5615903340        2.4407881014
 C        -6.3742828171       -2.5763810108        4.4475620656
 C        -5.9032532615       -1.4241605423        5.4221295486
 C        -6.7906875667       -0.1926094999        5.4140637140
 C        -6.5827862122        0.7658962719        4.1565514129
 C        -5.5327434061        1.9609555347        4.1155924614
 O        -4.9298914283       -1.6162645027        6.0633256350
 O        -7.2423448746        0.4337082593        3.1904410105
 C        -8.2852444952       -0.6455892935        5.4843178532
 C        -6.3585981676        0.6122812656        6.7348552025
 C        -5.4886842220        2.7614411719        2.7068369824
 C        -5.1890685404        1.7907751807        1.5623440789
 C        -5.9672462452        1.8054014202        0.1934285546
 C        -4.9867557365        1.3868259533       -0.8529459395
 C        -5.4707620440        1.0540716249       -2.3164830889
 C        -7.1679851954        0.8347776235        0.2396602983
 C        -6.3995275628        3.3171405793       -0.1231825496
 O        -4.3187873894        0.8940063390        1.7711779547
 O        -3.8087192055        1.4814699594       -0.6410710049
 C        -4.6856355891       -0.2187403800       -2.8833290018
 C        -5.2414172806       -1.3785342477       -2.0952014008
 C        -5.9494549425       -2.5021050705       -2.8764255403
 C        -5.0681413056       -3.1609557115       -4.0811413184
 C        -5.5596755699       -4.3576043558       -4.9538917832
 O        -5.0916768198       -1.3710674346       -0.8705047325
 O        -3.9275168786       -2.7585726732       -4.3521630576
 C        -6.1281352337       -3.6058012315       -1.8581349472
 C        -7.1305593144       -1.8764476398       -3.6420264630
 H         9.5902868739        4.9566065436       -7.1161372124
 H         9.4826226380        6.5729400472       -6.2952178770
 H        11.1031035133        5.8395752839       -6.7357295910
 H         9.9604968065        1.4531015006       -2.9298949892
 H         8.6024379756        2.6274059953       -2.8898470480
 H        12.3532504769        2.3968452912       -5.1881648933
 H        12.7237977046        4.0561086452       -5.3167445722
 H        11.5777016012        3.4278399870       -6.4283904199
 H        11.7462498496        2.8250223973       -2.8994776482
 H        12.1273081426        4.4522714982       -2.9888801464
 H        10.6197528226        4.1083938829       -2.2813128617
 H         7.6178802844        0.9387812395       -4.8125994460
 H         8.8065889169       -0.2273438955       -3.8776156506
 H         4.0495949211        0.4920764607       -1.1647910358
 H         4.2955173532        1.9173948626       -2.1583754238
 H         5.6148913828       -2.2181058011       -4.3454759764
 H         7.3049027097       -2.0401326983       -3.9191408695
 H         6.4957564179       -0.9332671471       -5.1874384248
 H         5.3728461286       -2.1577460593       -1.5442033488
 H         7.0138527851       -1.7656593589       -1.5072765213
 H         5.8141219842       -0.5146643670       -0.9100847531
 H         2.4025870840        0.9919054637       -3.6397188583
 H         2.0399479174        2.0607257049       -2.3588033031
 H         0.3352483942        1.7069635030       -0.4756073125
 H        -1.2895257579        1.4476677332        0.0306588598
 H         0.1216173845        1.4163198334       -3.9545498902
 H        -0.3320061901        2.0461313741       -2.5101729907
 H        -1.5093527105        1.0007423976       -3.3546541092
 H         0.4696149394       -2.2602448084       -2.6608444280
 H        -1.0835417284       -1.7385149436       -3.2296733412
 H         0.2059839555       -1.3345438271       -4.2052635041
 H        -0.6726136153       -0.3841640433        1.6761759062
 H         1.0728513391       -0.2845910458        1.0076170736
 H         0.1035400098       -0.0729929118        5.9359368182
 H        -0.7424310011        0.4030151147        4.4680813367
 H         2.9945746063        1.2674636584        1.7984329904
 H         3.0284457064       -0.3912731916        2.1315621296
 H         3.8309482696        0.5953683861        3.3303498932
 H         1.0076003874        2.1285468402        4.9301271433
 H         2.6660592826        1.3180999105        5.1898104167
 H         2.5011440708        2.5195745555        4.0344417530
 H        -2.0202496901       -1.5079342664        5.8380435320
 H        -0.5280276388       -2.5620183979        5.3486883211
 H        -5.7635227161       -4.3480152670        3.5489681567
 H        -5.1555009601       -4.2815229516        5.2236622115
 H        -0.9504697536       -4.3353140599        2.4219492664
 H        -2.4021180685       -3.7645178033        1.5127303940
 H        -2.6006659454       -5.1600190023        2.4850744482
 H        -2.7744058566       -5.4898418707        4.7017143031
 H        -1.2928512905       -4.5888061441        5.1963732510
 H        -2.9370231665       -4.2203177454        5.8828119475
 H        -6.5277123993       -2.3032439111        3.3817966357
 H        -7.3252408549       -2.9931607077        4.7452762416
 H        -5.8500607512        2.5817482086        4.9500756616
 H        -4.4961055004        1.6218623673        4.2669532354
 H        -8.4754627107       -1.1579027353        4.5500722524
 H        -8.9897452525        0.1973891052        5.5199604390
 H        -8.5190192117       -1.2185620994        6.3724707524
 H        -6.8395680806        1.5499369677        6.7109932228
 H        -6.5397844263        0.1217539298        7.6794942446
 H        -5.2910206461        0.7749616908        6.7503206230
 H        -4.7328745251        3.5901557213        2.8584594538
 H        -6.4515376074        3.2877312281        2.5168222693
 H        -6.5596988355        0.8435541128       -2.2101979210
 H        -5.2383241346        1.8848859866       -3.0507531336
 H        -7.7371005113        0.9024563301       -0.6499747491
 H        -7.8528960141        1.2501970466        0.9764867604
 H        -6.8810399126       -0.1174838464        0.5825703500
 H        -5.5404467899        3.9566387748       -0.0461242419
 H        -6.7397999774        3.4345005343       -1.1195102665
 H        -7.0991011726        3.7769811972        0.6112436661
 H        -4.5862938227       -0.3922239819       -3.9646769008
 H        -3.6418103445       -0.1982676637       -2.6295477250
 H        -4.6166034054       -4.7529278348       -5.3819129038
 H        -6.0680832469       -5.1497083276       -4.4394535628
 H        -6.1593363284       -3.9265841332       -5.7370517672
 H        -5.3866944082       -4.3255594819       -1.9773928674
 H        -7.1326997391       -4.0588723496       -1.7972831039
 H        -6.1520501995       -3.1183100802       -0.9088693676
 H        -6.7539091051       -0.9534882603       -4.1529713212
 H        -7.3869034034       -2.6375294059       -4.4163284174
 H        -8.0697259082       -1.6389220485       -3.0787835062
 Na       -3.3022825061       -0.8754773290        0.9197795846
