155

 C        10.5049042668        6.3972255289       -5.7524754337
 C         9.9967737237        5.4836463592       -4.6136391734
 C        10.6371132928        3.9707473346       -4.5616533546
 C         9.3288901715        3.0636844506       -4.6487550245
 C         8.4540788765        2.7239196117       -3.3902113710
 C        11.4925063770        3.6831364436       -5.8675395068
 C        11.3835580372        3.5676181135       -3.3164389027
 O         9.1573307509        5.8661597387       -3.8357797916
 O         9.0485505911        2.5881200046       -5.7413949582
 C         7.3253785026        1.6978325930       -3.7260618488
 C         6.8324380827        1.0513138943       -2.2900995901
 C         5.8380473735       -0.1923847389       -2.4881305339
 C         4.5830580150        0.0876228130       -3.3814699809
 C         3.7970988551        1.3948546027       -3.1055971223
 O         7.2939542500        1.3053294660       -1.2167670936
 O         4.2425306280       -0.6719114270       -4.2348457891
 C         6.6028188587       -1.4265781611       -3.0167596743
 C         5.3503040196       -0.5891422259       -1.1326515741
 C         2.3623093903        1.1601999903       -3.5788093287
 C         1.6719943173        0.3252285809       -2.5177143922
 C         0.0563834861        0.0335456872       -2.4625806145
 C        -0.3720045439       -0.2985667828       -1.0479488668
 C        -0.0283177450        0.6639148077        0.1410360321
 C        -0.8116005790        1.2460386909       -2.9690427541
 C        -0.0927673967       -1.2141064859       -3.4458837338
 O         2.3430224870       -0.3176508250       -1.7596108682
 O        -1.0984419311       -1.1820291991       -0.6857452115
 C         0.9181950988        0.1524231550        1.2166945542
 C         0.6946792415        1.0374454741        2.5119830752
 C         1.4190490847        0.4948077886        3.7848970303
 C         0.7276960749       -0.7860464501        4.1638654083
 C        -0.5861410846       -0.7097436037        5.0608294338
 O        -0.1875085791        1.8983173281        2.5774372300
 O         1.1188803220       -1.8651322965        3.7672780181
 C         2.8817920221        0.1218445454        3.4410189252
 C         1.4180824547        1.5874823961        4.8811394280
 C        -1.3225332671       -2.0113292351        4.7473435014
 C        -2.2151509706       -2.0346916302        3.4014723601
 C        -3.0641186792       -3.3309572064        3.2885510269
 C        -4.4932008777       -2.8707885641        3.0049645995
 C        -5.7594887210       -3.4947538488        3.6578233815
 C        -2.6831512246       -4.2316776497        2.0784925855
 C        -3.0862421377       -4.2427013911        4.5341685529
 O        -2.0838641553       -1.1659301162        2.5356367339
 O        -4.6093565251       -1.8487562965        2.3411396922
 C        -6.8733772818       -2.3838244111        3.9240203689
 C        -6.1832032410       -1.4884422326        5.0924133337
 C        -6.8940883740       -0.1028292390        5.4845697146
 C        -6.7922081670        0.6829135184        4.1264505328
 C        -5.7660998410        1.7450800224        3.9186378822
 O        -5.2036146280       -1.9111176359        5.6246772512
 O        -7.5343042948        0.2808551770        3.2208806392
 C        -8.3791163451       -0.3596669316        5.9730910314
 C        -6.1841513222        0.5745771554        6.6529932781
 C        -5.8237619679        2.4048024148        2.4433707616
 C        -4.9544027397        1.7458403940        1.3671410151
 C        -5.3959625133        1.7868530986       -0.1699027359
 C        -4.3893796907        1.1569021074       -1.1608000025
 C        -4.8001855292        0.7170626583       -2.5177605291
 C        -6.7333944568        1.0082756454       -0.1193844573
 C        -5.8800233398        3.2141860113       -0.5929748848
 O        -4.2104575263        0.8463201036        1.6591054060
 O        -3.2241975473        1.1513415271       -0.7326042423
 C        -4.1813173975       -0.6569800854       -2.9660510943
 C        -4.6990716491       -1.7505850452       -1.9338995098
 C        -5.2536483061       -3.1392563255       -2.4853020307
 C        -4.4833061950       -3.4354378023       -3.8835681231
 C        -5.2263694086       -4.2400845787       -4.9868530594
 O        -4.6319743839       -1.4532190669       -0.7891548573
 O        -3.2795378183       -3.1214846671       -4.0977098764
 C        -4.7693571576       -4.3603517173       -1.4930402077
 C        -6.8185054242       -3.2708427869       -2.6438590383
 H         9.9928900805        5.9791257017       -6.6951186185
 H        10.0636730326        7.3860008688       -5.6263227180
 H        11.5571264290        6.5918656485       -5.7703340834
 H         9.1820762068        2.2935971077       -2.6367153027
 H         8.0547759367        3.6358058610       -2.9501154961
 H        11.9067028508        2.7062451795       -5.7103496841
 H        12.2981752333        4.3860919300       -5.9290813029
 H        10.9297352700        3.6043582272       -6.7950202508
 H        11.9172290218        2.6323203996       -3.5238192055
 H        12.1439928074        4.3332429694       -3.2335076693
 H        10.8305611678        3.4671419213       -2.3801493395
 H         6.4989206045        1.9578459702       -4.4159475557
 H         7.6411667350        0.8192037599       -4.2964675882
 H         3.8478780758        1.7176117200       -2.1227878223
 H         4.2064436106        2.1759683565       -3.7912030977
 H         6.1778882150       -2.3228742112       -2.5525989435
 H         7.6415392098       -1.4170430203       -2.8203036379
 H         6.4112520684       -1.4955839799       -4.0908415952
 H         4.7031078402       -1.5416286709       -1.2036570531
 H         6.2860691029       -0.7834258099       -0.5600985305
 H         4.8648640156        0.1611124533       -0.5433987790
 H         2.2789598320        0.6363461344       -4.5052465318
 H         2.0217105098        2.0822510645       -3.8956646672
 H         0.2741668538        1.5863396011       -0.3326415540
 H        -1.0231907249        0.7719202451        0.6625437373
 H        -0.7356274267        1.4048903427       -3.9962369924
 H        -0.4697739703        2.1093687967       -2.2899748315
 H        -1.8669644161        1.0925905063       -2.7400473058
 H         0.8946460324       -1.7239208851       -3.4162990882
 H        -0.8850206230       -1.8539635957       -3.0633813486
 H        -0.2057933843       -0.9810894227       -4.5157040165
 H         0.7456051337       -0.8939031308        1.5293638374
 H         1.9024056316        0.1858887260        0.9392921596
 H        -0.4898172851       -0.4604700649        6.1559084083
 H        -1.1894475200        0.0508348440        4.5734739882
 H         3.4148697490        0.8969802869        2.9707688680
 H         2.9689157093       -0.8084849493        2.8989470722
 H         3.4661084400       -0.0308248322        4.3380514215
 H         0.4049014556        1.9134803418        5.1842422986
 H         1.8653471617        1.3343068707        5.8295935571
 H         1.7376496578        2.5191576749        4.4701210322
 H        -1.8648487622       -2.3538492019        5.6060949318
 H        -0.6022979967       -2.9241049764        4.5668063373
 H        -6.0690417621       -4.2570012453        2.9185935065
 H        -5.6225243147       -4.1293443956        4.5746166471
 H        -1.8055973814       -4.7590753342        2.3017791984
 H        -2.6081608133       -3.5216393239        1.2551700085
 H        -3.4622184729       -4.9957519698        1.9749725740
 H        -3.4970016178       -5.2304064238        4.1833557848
 H        -2.2186379258       -4.4947282529        5.0668732743
 H        -3.8052827071       -3.9128925811        5.2779081327
 H        -7.0751703215       -1.7497063232        3.0744616806
 H        -7.8453903026       -2.8492438382        4.0982198234
 H        -5.7156108193        2.5280492999        4.6905757518
 H        -4.8333736194        1.2530132181        3.9959591095
 H        -9.0228950149       -0.1981156496        5.0347897453
 H        -8.6399455714        0.3181315179        6.7751305142
 H        -8.6206874168       -1.4052350319        6.2144932240
 H        -6.4466347847        1.6499887836        6.7122634264
 H        -6.2741578317        0.1145333843        7.5879469148
 H        -5.1390499684        0.6559539988        6.3932399499
 H        -5.7566577926        3.5644131035        2.4320194835
 H        -6.8919034106        2.2173295257        2.1164921559
 H        -5.8381991798        0.7702525889       -2.7667812859
 H        -4.3794334345        1.5112010833       -3.2778298262
 H        -7.1488226549        1.0423075695       -1.1332529394
 H        -7.4358495420        1.4404100294        0.5692396905
 H        -6.6132801855        0.0092395588        0.0302644970
 H        -5.0170761469        3.8909343064       -0.7301907606
 H        -6.4896408619        3.1554124227       -1.5347881387
 H        -6.5556159516        3.6243581865        0.1788829248
 H        -4.5618554899       -0.8219371646       -3.9501620978
 H        -3.0503925053       -0.6584585559       -2.8594643104
 H        -4.6746742540       -5.1712565063       -5.2312282523
 H        -6.1552649762       -4.4222511856       -4.5441437305
 H        -5.4168259317       -3.5823731903       -5.8601245928
 H        -3.7275073153       -4.5381773597       -1.4566810080
 H        -5.2503079661       -5.2470686752       -1.9100592982
 H        -5.0721346074       -4.0808395034       -0.5359644992
 H        -7.4200678818       -2.6800984397       -3.4124508917
 H        -7.1647500976       -4.3022464788       -2.8665115021
 H        -7.2169233368       -3.0866111957       -1.6612249640
 Na       -3.1660840629       -0.9997804688        0.6373796500
