155

 C        10.4127810657        6.3861733970       -5.4966295274
 C        10.0108885770        5.3598626414       -4.4581555999
 C        10.4980202636        3.9369044215       -4.6336757107
 C         9.1786738270        3.0843138122       -4.7011472406
 C         8.2938640497        2.8356408781       -3.4428779783
 C        11.4503858076        3.6929346051       -5.9223924261
 C        11.4864639389        3.9707705567       -3.3797795922
 O         9.1717027499        5.5873995194       -3.5968261523
 O         8.8969722523        2.5363064461       -5.7435018124
 C         7.1256330096        1.9316032830       -3.6425976948
 C         6.7948064845        1.1548228696       -2.3617545924
 C         5.9023482885       -0.1597395869       -2.4233447853
 C         4.6388418089        0.0425755948       -3.3943149144
 C         3.8485921130        1.4204298021       -3.4160584993
 O         7.2067290503        1.4766256498       -1.2391843934
 O         4.4077241882       -0.7403066632       -4.3056596135
 C         6.6818184374       -1.3987663772       -2.8698504885
 C         5.2282611452       -0.3109542405       -0.9840389226
 C         2.3018471306        1.2332934354       -3.4642532186
 C         1.7542672034        0.2698069010       -2.4093822889
 C         0.1947950100        0.0178537948       -2.4163416547
 C        -0.3297387618       -0.2245758864       -1.1044424529
 C        -0.0477035632        0.7438366835        0.0441949112
 C        -0.6391732058        1.2899330049       -3.0001189090
 C        -0.0348255131       -1.2425795382       -3.3926826566
 O         2.4910332809       -0.2921276302       -1.5998653780
 O        -1.1568635412       -1.1227603344       -0.8553095686
 C         0.5596931688        0.0261244798        1.2702041819
 C         0.6264938428        0.9822908868        2.5998660296
 C         1.4509799716        0.4109585697        3.8724936371
 C         0.5493857623       -0.8859678195        4.2448814656
 C        -0.8004279411       -0.6843236761        4.9720931086
 O        -0.1910436418        1.8299074755        2.7659442191
 O         0.8578335194       -1.9420701592        3.7632912940
 C         2.9381774648       -0.0532834919        3.7392899171
 C         1.4010371858        1.5771005206        4.8766930662
 C        -1.5661472326       -1.9671908948        5.0712848356
 C        -2.0549803445       -2.2463858672        3.6228698666
 C        -2.9603670400       -3.4437405234        3.2968319186
 C        -4.5062635442       -2.7620708807        2.9783908865
 C        -5.8549401092       -3.3583433638        3.4703255912
 C        -2.5693646167       -4.1781802391        1.8800349167
 C        -3.0462435990       -4.5216944091        4.3174409384
 O        -1.8358355438       -1.5468265045        2.6376057413
 O        -4.6220732662       -1.8765810392        2.1770556201
 C        -6.7080144968       -2.2116857954        3.9052029443
 C        -6.0915816982       -1.3641400362        4.9556211319
 C        -6.9198613252       -0.1002907762        5.3962805951
 C        -6.9681299209        0.7803715651        4.0599005535
 C        -5.7445712339        1.6985395178        3.7826445640
 O        -4.9196337464       -1.5606467515        5.3719540461
 O        -7.7307367266        0.6080795651        3.1382964200
 C        -8.3857098923       -0.4255134598        5.7730008063
 C        -6.0629644565        0.5284260151        6.5559864023
 C        -5.8255897955        2.4823504960        2.4669606880
 C        -5.1399704257        1.6676575186        1.3357973881
 C        -5.6474764075        1.6008283802       -0.1688074662
 C        -4.6239933474        1.0615226726       -1.0733400848
 C        -4.8874260784        0.5260795591       -2.5151125472
 C        -7.0035167051        0.9221768203       -0.2875488851
 C        -5.6670234377        3.0852738448       -0.5339715482
 O        -4.1381780729        1.0784012463        1.7428470041
 O        -3.4190725484        1.1508568830       -0.8243222671
 C        -4.1051827031       -0.7429491873       -2.8231030985
 C        -4.6503562628       -1.8972285658       -1.9924136075
 C        -5.0895259096       -3.3160364409       -2.5158505171
 C        -4.2877576311       -3.5729777815       -4.0222362442
 C        -5.0992092177       -4.3134740296       -5.1612565523
 O        -4.9902299161       -1.7279032648       -0.7908286120
 O        -3.1764516495       -3.1898020474       -4.0957803853
 C        -4.3748179930       -4.2759324608       -1.4878044631
 C        -6.6604170508       -3.2591173488       -2.4193714371
 H        10.3754575372        5.9814279322       -6.4777324353
 H         9.7421499995        7.2403428945       -5.3908969769
 H        11.3699763598        6.8344797084       -5.2511961355
 H         9.0073513116        2.4064129849       -2.7772549832
 H         8.0017515136        3.7969568604       -2.9523748336
 H        11.8735799078        2.6556404481       -5.9792175174
 H        12.2933923295        4.3883704578       -5.8679556516
 H        10.9140627753        3.9900741251       -6.8307102305
 H        12.0221062343        3.0251202653       -3.1700957124
 H        12.1809175946        4.8347786507       -3.4504887931
 H        10.7647934514        4.1696459680       -2.5874237376
 H         6.1475019283        2.3938740470       -3.8723913409
 H         7.2740040626        1.3023988805       -4.5412611018
 H         4.1689194643        2.0919364891       -2.5328143837
 H         4.1916525128        1.8264469203       -4.3426774767
 H         6.0225669045       -2.2997748770       -2.7876622100
 H         7.5549418790       -1.5915003745       -2.1723026487
 H         6.9765713391       -1.2953717667       -3.9338030499
 H         4.8994309169       -1.2967927466       -0.9499063414
 H         5.8521298351       -0.1575663886       -0.1140484476
 H         4.4279322396        0.4453765940       -0.8750221459
 H         2.0006788623        0.8298849365       -4.4777979338
 H         1.7801525314        2.2702618041       -3.5287527032
 H         0.6121228024        1.4891661302       -0.4030031720
 H        -0.9994687379        1.1394565540        0.2944111166
 H        -0.2175885145        1.5784734038       -3.9914837880
 H        -0.5063179176        2.0894968568       -2.3236175448
 H        -1.6662148394        1.0639229343       -3.0095604348
 H         0.6191205993       -2.0093999044       -3.1102527409
 H        -1.0711131759       -1.5556092733       -3.3375973676
 H         0.3034145284       -0.9881320687       -4.3705709951
 H        -0.0397799543       -0.8098041964        1.6310651648
 H         1.5697002495       -0.4623121835        0.9975238725
 H        -0.5464935664       -0.1504510857        5.8553719862
 H        -1.4276096766       -0.0395126717        4.3268271152
 H         3.6788622678        0.7828475670        3.7445221665
 H         3.1123116273       -0.6695966989        2.8071053035
 H         3.2866335859       -0.7421320700        4.5181155907
 H         0.4718277640        2.0904745609        4.9135376719
 H         1.4784000174        1.1896406871        5.8830518581
 H         2.0120161228        2.4688960602        4.7216871244
 H        -2.5029282322       -2.0053340618        5.6948278992
 H        -1.0813674114       -2.7939828840        5.4399992345
 H        -6.3906894833       -4.0201912846        2.7467940045
 H        -5.6597448854       -4.0204705747        4.2943770930
 H        -1.4665771583       -4.3590413147        1.8835512634
 H        -2.9485966876       -3.5427027793        1.0949194941
 H        -3.0880909993       -5.1372126204        1.9115494504
 H        -3.8509831414       -5.2239301018        4.3894063451
 H        -2.0985146778       -5.1061803103        4.3653010305
 H        -3.1075361729       -4.0130168051        5.3123562156
 H        -7.0619396550       -1.5754061682        3.0635373457
 H        -7.6569046197       -2.6358576965        4.3027499908
 H        -5.6304177071        2.5128609075        4.4777913548
 H        -4.7904693462        1.1216137115        3.9370780282
 H        -8.9286317926       -0.7140070473        4.9253781733
 H        -8.8213855718        0.4198738523        6.2951033963
 H        -8.4127050695       -1.2305095390        6.5012699137
 H        -6.6066215223        1.2481322248        7.1545517680
 H        -5.7656452775       -0.3315703897        7.1905153393
 H        -5.1233129913        0.9835822634        6.2816103288
 H        -5.2418292639        3.3729009797        2.5038590665
 H        -6.8644553848        2.7875994794        2.3915657746
 H        -5.9466257428        0.2754954167       -2.7359561603
 H        -4.6146149711        1.2256069020       -3.2056407668
 H        -7.4078842224        0.8576290619       -1.3005418387
 H        -7.7499761666        1.4156285726        0.3574193164
 H        -6.8466965638       -0.1688739525       -0.0118443908
 H        -4.8228619974        3.6686950519       -0.2244200358
 H        -5.7196666210        3.1019619186       -1.5968765159
 H        -6.5740741506        3.4949257740       -0.1640009642
 H        -4.2176143670       -0.9776524785       -3.9116083988
 H        -3.1272004790       -0.5702574747       -2.4445090365
 H        -4.6092711537       -5.2480173986       -5.1097264382
 H        -6.2023057741       -4.3553230836       -4.9947975354
 H        -4.7646292642       -3.8421377850       -6.0603573342
 H        -3.3776872921       -3.7401193083       -1.3037279367
 H        -4.1419458787       -5.2280128127       -1.9345354532
 H        -4.9098025519       -4.2954493670       -0.4796765061
 H        -6.9636871912       -2.5676862662       -3.1635683998
 H        -7.2508068940       -4.0981564030       -2.7777720609
 H        -7.0699714624       -2.9638440206       -1.4138378666
 Na       -2.8849666567       -0.7734726439        0.6871453666
