155

 C        10.0108374169        6.8581278133       -5.1282824640
 C         9.8269598612        5.5885563907       -4.3787438239
 C        10.5091967263        4.1927546483       -4.7995059860
 C         9.2714554566        3.0611853126       -4.7395523552
 C         8.5850920701        2.6802929159       -3.3505720115
 C        11.2556910928        4.0750598221       -6.1040047404
 C        11.4738782142        3.9742301367       -3.5849620315
 O         9.1485123642        5.5347714684       -3.3825615649
 O         8.9361606976        2.5675633470       -5.7495921032
 C         7.2764333990        1.8990541669       -3.4715711303
 C         6.7926372951        1.4072471062       -2.0889414897
 C         6.0422155059        0.0017478328       -2.1074814566
 C         4.8766288938        0.1344632611       -3.1082072183
 C         3.8560264694        1.2990518187       -3.0835337002
 O         6.7705992427        2.1227168522       -1.0881822639
 O         4.7722487598       -0.6593486057       -4.0473937296
 C         7.0114814578       -1.0401339991       -2.6400688992
 C         5.5194855329       -0.3797903331       -0.6327793406
 C         2.4003631129        0.9514768108       -3.5372960833
 C         1.6066262719        0.4622759270       -2.3006234518
 C         0.1122669197        0.2181114806       -2.4668368584
 C        -0.5605990599        0.0742925374       -0.9801033407
 C        -0.1794969269        0.9463737518        0.1652181330
 C        -0.6090168125        1.2743225646       -3.3063696053
 C        -0.0557409270       -1.1951036107       -3.2484790185
 O         2.1777990114        0.3134242581       -1.2045577555
 O        -1.3000822965       -0.9293018370       -0.9266163575
 C         0.5337041632        0.0315227649        1.2082481814
 C         0.4666820615        0.6939033847        2.6222986947
 C         1.2481801964        0.1541360488        3.9071813156
 C         0.4540327799       -1.1855173970        4.4415747568
 C        -0.8905956990       -0.9839901462        5.1362018075
 O        -0.0795386163        1.7294720626        2.6952655909
 O         0.9411216569       -2.3001177351        4.4266157695
 C         2.7186237157       -0.3376634835        3.4823049835
 C         1.2264092998        1.1168536398        5.1155391565
 C        -1.7492112623       -2.2488504521        4.9892094795
 C        -2.1318631224       -2.3853494593        3.5359820531
 C        -2.9342706393       -3.6004539581        3.1226408321
 C        -4.4446372765       -3.0430101947        2.8149260896
 C        -5.6102235321       -3.3510658779        3.9524345395
 C        -2.5057099241       -4.0279167117        1.6242262987
 C        -3.0878340146       -4.8132891045        4.0926645616
 O        -2.0722445758       -1.4312903261        2.7881638681
 O        -4.6492350091       -2.3795181844        1.7908026319
 C        -6.6578719846       -2.2458237720        3.7104800296
 C        -6.1010542954       -1.0391213921        4.3389758329
 C        -7.0184255351        0.1012559338        5.0167518291
 C        -7.1533294748        1.2432259114        3.9718034276
 C        -5.9157473451        2.2038021347        3.7520884817
 O        -4.9054306931       -0.7639933991        4.2069950603
 O        -8.1222094115        1.3369831994        3.2374878887
 C        -8.3712606993       -0.4523575019        5.3898370464
 C        -6.2723970549        0.5856351364        6.3507897549
 C        -5.6708979138        2.6266648004        2.2877254938
 C        -5.0629555577        1.6650190159        1.3147515067
 C        -5.6927108706        1.5455844838       -0.0494295090
 C        -4.6455932625        0.9130133210       -1.0094220402
 C        -5.2978487308        0.3076727108       -2.2799111194
 C        -7.0995588879        0.8657569317        0.1006562180
 C        -6.0102631594        2.9098378742       -0.8268159730
 O        -4.2051958607        0.8373513422        1.6917373590
 O        -3.4606389265        1.0885384456       -0.9374792756
 C        -4.7102443238       -0.9765529270       -2.8572740071
 C        -4.5768340062       -2.2371545255       -1.9704862270
 C        -4.6480737612       -3.7186528387       -2.5381335754
 C        -3.8451397160       -3.6622572724       -3.9556662911
 C        -4.5028578638       -4.3244668224       -5.1670913226
 O        -4.1577977478       -2.0462733066       -0.8496384620
 O        -2.8021926761       -3.0870777029       -4.0371749619
 C        -3.7259574328       -4.6678585816       -1.7221394030
 C        -6.1435272934       -4.0228941733       -2.5444896031
 H         9.5252738224        6.7173679105       -6.0267178007
 H         9.5463153159        7.6531976992       -4.5641821930
 H        11.0484257870        6.9494060789       -5.5772727476
 H         9.2955760250        2.1233535332       -2.6770779524
 H         8.3736049938        3.5738667631       -2.8773301380
 H        11.4103876279        3.0221161061       -6.3623245030
 H        12.3023730131        4.4973439385       -5.9301953621
 H        10.8806654110        4.6783114947       -6.9634045219
 H        12.0505693850        3.0665703240       -3.7810994901
 H        12.1775777372        4.8241327260       -3.6675153078
 H        10.9780567437        3.9526597013       -2.5911161859
 H         6.5056481952        2.5497109810       -3.8731139287
 H         7.5684045028        0.9323770493       -3.9650060575
 H         3.8742501142        1.7031850544       -2.0864626293
 H         4.2658955012        2.1058415038       -3.8036161482
 H         6.6991518350       -2.0393020284       -2.4905330289
 H         8.0156005887       -0.9075613314       -2.1049121958
 H         7.1069381570       -0.9135575384       -3.7569346876
 H         5.3584035418       -1.4404898569       -0.5299189198
 H         6.2314000448       -0.0905010220        0.0771328863
 H         4.5480685271        0.1715647401       -0.4638281975
 H         2.3974227191        0.1205443254       -4.2994385160
 H         2.0082418230        1.9412197672       -3.9232388366
 H         0.3434605350        1.9046447986       -0.1001028262
 H        -1.1399246370        1.2819037739        0.5943539979
 H        -0.1412420978        1.4808550654       -4.3282239563
 H        -0.5812934968        2.1712313434       -2.7437129792
 H        -1.7112202536        0.9089219569       -3.4042924590
 H         0.8208119747       -1.8317856024       -3.0769165178
 H        -0.8500731757       -1.7200675074       -2.8023071621
 H        -0.3727171590       -1.0001660937       -4.2321324956
 H         0.1332827569       -0.9800902848        1.2392766567
 H         1.6322856909       -0.0341448669        1.0569257136
 H        -0.6106342941       -0.9879244098        6.2253675203
 H        -1.3536606817       -0.0440784033        4.9338973745
 H         3.3064963344        0.0926192235        2.6101446089
 H         2.6156127581       -1.3549135918        3.1939948107
 H         3.3399029382       -0.4286917249        4.4192607598
 H         0.2223212524        1.5134510314        5.3708215985
 H         1.5761347854        0.7111583311        6.0592419376
 H         1.9554467366        1.8857425602        5.0711153165
 H        -2.4436078046       -2.3361143958        5.8019626586
 H        -1.2335130293       -3.2100865419        5.2739612914
 H        -6.0144015270       -4.3055392781        3.9024773340
 H        -5.1180456464       -3.2458548099        4.9385184868
 H        -1.3908014408       -3.9825175117        1.5821410199
 H        -2.9410348319       -3.2835690288        0.9702571872
 H        -3.0108101224       -4.9278638653        1.3913770956
 H        -3.7164962344       -5.5811630071        3.6919482042
 H        -2.1450600964       -5.3805747470        4.3515940031
 H        -3.4994001363       -4.5228527313        5.0512132639
 H        -6.6477872107       -1.9220115658        2.6458370206
 H        -7.6721774728       -2.5398997633        3.9977348651
 H        -5.9262637382        3.2450828822        4.2396118056
 H        -4.9792803762        1.8177046524        4.1486466321
 H        -8.9261183875       -0.4775220233        4.5032453538
 H        -8.9568304266        0.1610373542        6.0752871196
 H        -8.2171999615       -1.4112621200        5.8235028021
 H        -6.8580844505        1.2082725104        6.9686663552
 H        -5.7849708573       -0.1873281066        7.0135612241
 H        -5.4008267535        1.1353910013        5.9343118965
 H        -4.9800180848        3.4352115845        2.2573157084
 H        -6.6210959750        2.8902704821        1.9200350429
 H        -6.3771383779        0.1666848097       -2.2462424653
 H        -4.9135468900        1.0389840620       -3.0628259538
 H        -7.6377778126        0.7409773045       -0.8261244575
 H        -7.7822425968        1.3803126700        0.8009203297
 H        -7.0097681551       -0.1617690916        0.6131773646
 H        -5.1253933356        3.4808460423       -0.8324665247
 H        -6.2749074103        2.7203167812       -1.8231094140
 H        -6.8378005997        3.4510252985       -0.3547818941
 H        -5.3875577277       -1.0902043098       -3.6777656065
 H        -3.6740991465       -0.8332178123       -3.2005921261
 H        -5.4059622449       -4.9334900782       -5.0014782734
 H        -4.5888030558       -3.4442755114       -5.7822391375
 H        -3.6936169405       -4.9642953307       -5.4627916572
 H        -2.7345992918       -4.2642419459       -1.6107282888
 H        -3.7693353188       -5.6473821714       -2.3112014679
 H        -4.2982277269       -5.0264065374       -0.8501171160
 H        -6.5730704817       -3.3645252238       -3.3109396345
 H        -6.5710615582       -4.9822773266       -2.7981354997
 H        -6.6837061988       -3.7129232219       -1.6782121204
 Na       -3.2033308910       -0.7864749637        0.7420555685
