155

 C         8.6061828418        6.5773737541       -4.7118632107
 C         9.9166000931        6.3197028048       -4.0718213169
 C        10.4352473106        5.0290800460       -4.5223973329
 C         9.2916297723        3.9954708560       -4.3897697837
 C         8.7237069174        3.6749826314       -2.9423820153
 C        10.8911485380        4.8629718462       -6.0107248558
 C        11.6629441452        4.6361633767       -3.5914637514
 O        10.5461622383        7.0307696991       -3.3096321383
 O         8.7202854353        3.5889081973       -5.3525083987
 C         8.2136055172        2.3188494729       -2.9168518994
 C         6.9126298021        2.0545916484       -2.2276764628
 C         6.3918801132        0.6564530376       -1.8480992343
 C         5.1013343382        0.5144797440       -2.7659215444
 C         3.8760922083        1.3476275035       -2.3607473228
 O         6.1043037449        2.9311158843       -1.9313635305
 O         5.0212026523       -0.4106661165       -3.5928287334
 C         7.3701003741       -0.4748553604       -2.0671154646
 C         6.0812804751        0.6279050076       -0.3737883929
 C         2.4243558605        0.8082705814       -2.7667009185
 C         1.4579982312        0.6932204910       -1.6978237527
 C        -0.0611956313        0.7817548055       -2.0907389244
 C        -0.9351525640        0.1174237216       -0.8476913499
 C        -0.9315582525        0.6924972170        0.6592677518
 C        -0.2499431048        2.2719454700       -2.2277081792
 C        -0.4443053381        0.0277505042       -3.2810309010
 O         1.8796107191        0.5152066278       -0.5376702506
 O        -1.6318084054       -0.8421530390       -1.0394176973
 C        -0.0178434477       -0.0813480816        1.6026270693
 C        -0.1691518811        0.5463028317        3.1013453078
 C         0.5552114865       -0.0020228023        4.4299299895
 C        -0.0486546535       -1.4661031823        4.7512655874
 C        -1.3997777339       -1.5701172529        5.3526237791
 O        -0.9211467214        1.4716206149        3.2755579177
 O         0.4376239969       -2.4146773559        4.1851925342
 C         2.1352661161       -0.1601327521        4.0518360798
 C         0.4007829633        1.1082464541        5.5990341714
 C        -2.0972369132       -2.9595700810        5.0550282295
 C        -2.6055646387       -3.0484837772        3.5856701480
 C        -3.7147486169       -4.1122929914        3.2756738488
 C        -4.9563127942       -3.1146813430        3.0877635941
 C        -6.1065430274       -3.2553838180        4.0986004814
 C        -3.4495514342       -4.8517452448        1.9723494757
 C        -3.8119912831       -5.1082606596        4.4713888272
 O        -2.2270142742       -2.3047646206        2.7249266866
 O        -5.0416240691       -2.5373551361        2.0124795788
 C        -7.1475098113       -2.1788796058        3.9400638922
 C        -6.7914729605       -0.9521786451        4.9300856988
 C        -7.0194817409        0.5322353299        4.6348200810
 C        -6.7030749724        0.9517579729        3.0993487800
 C        -5.4357095840        1.6286425308        2.8625819731
 O        -6.3271358498       -1.3124447521        5.9809304792
 O        -7.4365416981        0.5047991779        2.2427364237
 C        -8.6024861575        0.8751514857        4.7479438473
 C        -6.4639351523        1.4100373346        5.8001335471
 C        -5.2765408002        2.4473426127        1.4459908522
 C        -5.1341370810        1.2317782109        0.4438070796
 C        -5.7053035409        1.3207494245       -1.0101043044
 C        -4.7790488772        0.3378819545       -1.9268667553
 C        -5.2295430163       -1.1275978476       -1.9843745236
 C        -7.1770258124        0.8654986201       -1.0597364118
 C        -5.6001064309        2.7925524732       -1.6033162711
 O        -4.5198553225        0.2296295616        0.7418659025
 O        -3.8057747805        0.7649258909       -2.5519550973
 C        -4.6844697544       -2.2194667143       -2.9428206111
 C        -3.7256144801       -3.2258286093       -2.3214063595
 C        -3.1821904171       -4.3039691092       -3.2419820893
 C        -2.0097960907       -3.4941638484       -4.0726747041
 C        -0.5315842201       -3.7011738921       -3.6244985852
 O        -3.5066972850       -3.2662761355       -1.1258110671
 O        -2.3557444143       -2.6599889970       -4.8323443982
 C        -2.5509932312       -5.5153569372       -2.5860400749
 C        -4.2271632548       -4.7521127241       -4.3816655889
 H         7.8645632365        5.9271360298       -4.0451141018
 H         8.3664247224        7.6415407888       -4.6184646626
 H         8.6093754398        6.2734689932       -5.7352596738
 H         9.5800456442        3.8903702245       -2.2236102366
 H         7.9536649013        4.3616019497       -2.7817019577
 H        10.8546087425        3.8067225301       -6.2526302711
 H        11.8253173078        5.2467356710       -6.4330142200
 H        10.1527251555        5.3286142476       -6.6471037268
 H        11.9414000142        3.6178033407       -3.7531259719
 H        12.5410360643        5.2645784580       -3.7314931934
 H        11.4195256515        4.7017893041       -2.5394970767
 H         8.0112454182        2.0201486087       -3.9821563797
 H         8.9898927529        1.7216092232       -2.4280533177
 H         3.8177575353        1.3639856766       -1.3423047255
 H         4.1126097694        2.3128059586       -2.7718492685
 H         6.8917581177       -1.4946362853       -1.7658678446
 H         8.2058965387       -0.2800526142       -1.3655103150
 H         7.8592830963       -0.6440118226       -3.0229881480
 H         5.4546502211       -0.1356121884        0.0391673623
 H         7.0103502807        0.5978927595        0.1561432874
 H         5.6041831530        1.5616319530       -0.0612702374
 H         2.6128776127       -0.1263996513       -3.3021037568
 H         1.9620373068        1.3448146129       -3.5011734929
 H        -0.6205720792        1.7902502777        0.8693510703
 H        -1.9448538247        0.5752898014        0.9411208152
 H         0.6887117007        2.6384482531       -2.7149600419
 H        -0.2730787355        2.7953943267       -1.2256535852
 H        -1.2078990209        2.5364195513       -2.7512619162
 H        -0.0785345027       -0.9578395816       -3.3877162386
 H        -1.5266371229        0.0111978302       -3.4143281024
 H         0.0636053977        0.4729530430       -4.1194454353
 H        -0.1565510622       -1.1678571787        1.5758896642
 H         1.0976815940        0.0108673704        1.3102471660
 H        -1.1567358570       -1.2773958938        6.4342616986
 H        -2.1041241336       -0.7841259522        5.0186401192
 H         2.7748675743        0.4158154237        4.7048351253
 H         2.2441880103        0.0048745459        2.9081947989
 H         2.3442642245       -1.2538813196        4.1209812796
 H        -0.6686824905        1.2504024307        5.7753016899
 H         0.8658464887        0.6639735169        6.4663056583
 H         0.7335227911        2.0739086049        5.2088387996
 H        -2.9416139107       -3.0205302298        5.6800971508
 H        -1.2824246513       -3.7705050886        5.1016072797
 H        -6.6266216393       -4.2189943289        3.9558839993
 H        -5.7100558707       -3.2459917608        5.1275406822
 H        -2.4306685352       -5.3371526984        2.0171233180
 H        -3.5241503713       -4.2231273651        1.0784314819
 H        -3.9764708982       -5.7425319529        1.8772975072
 H        -4.6404618362       -5.7518447659        4.4556232694
 H        -2.8977494795       -5.7337447138        4.3977157189
 H        -3.9416532641       -4.6580179126        5.4588455799
 H        -7.3540412708       -1.8786091178        2.9386879796
 H        -8.0881406403       -2.6295008923        4.2753227306
 H        -5.1211897898        2.1552297624        3.7476872230
 H        -4.7672902230        0.7791505794        2.7944772363
 H        -9.2811131426        0.4376193313        4.0835145879
 H        -8.6003742536        1.9633491428        4.7497685814
 H        -8.9679279176        0.5279023793        5.7092535513
 H        -6.4257012483        2.4552448679        5.5653041269
 H        -7.0162721934        1.2070730348        6.7329675947
 H        -5.4544032886        1.0873272215        5.9816080431
 H        -4.2753904673        3.0181920555        1.5623827718
 H        -6.1337109404        3.2048894659        1.3042224705
 H        -5.2444151115       -1.5816668707       -1.0357616824
 H        -6.2926545492       -1.1150666430       -2.3107608921
 H        -7.4212928788        0.7398791823       -2.1175641603
 H        -7.7271878014        1.7919934432       -0.8127097530
 H        -7.4848337001       -0.0990520431       -0.6104731943
 H        -6.4406523635        2.8584236753       -2.3194414675
 H        -5.7488658795        3.6009602917       -0.9068033894
 H        -4.7054881679        2.8248896328       -2.2440652805
 H        -5.5885656580       -2.5644813032       -3.3992448926
 H        -4.0204622181       -1.8072064649       -3.7841059430
 H         0.0986304613       -3.0705240836       -4.2485300878
 H        -0.4971830723       -3.2975453044       -2.5587547240
 H        -0.0637180257       -4.6930144381       -3.6264504656
 H        -1.4904038294       -5.3079364024       -2.2592696729
 H        -2.3803328170       -6.2764840808       -3.3004675021
 H        -3.0808001431       -5.8169443660       -1.6462870212
 H        -4.1658156820       -4.1134429458       -5.2640025625
 H        -3.9596608208       -5.7907740218       -4.6672302457
 H        -5.1906367379       -4.8478056062       -3.8314748199
 Na       -3.3265774427       -1.7913876180        0.5850351195
