155

 C         8.5158861869        7.0466856813       -4.7632839136
 C         9.8431345730        6.3547772438       -4.1725165579
 C        10.3912500337        4.9787468638       -4.5591738004
 C         9.2561945622        3.9310468427       -4.2508176208
 C         8.8429389596        3.6002516626       -2.7885122443
 C        10.9559927602        4.7857621817       -5.9801665436
 C        11.6245323885        4.7034731201       -3.6348675916
 O        10.3806311599        7.0722927145       -3.3725192604
 O         8.5360949085        3.6020343110       -5.1866220173
 C         8.3319019924        2.0870347896       -2.6761032055
 C         6.8789908754        2.1386981496       -2.1175263493
 C         6.2876529348        0.6418693966       -1.8208677640
 C         4.9858609821        0.4898576427       -2.7295816921
 C         3.7525506480        1.2166437548       -2.2663335411
 O         6.2412401538        3.1673230722       -2.0759434826
 O         4.9679552852       -0.1441736467       -3.7426012585
 C         7.2286801716       -0.4956133327       -2.2668664640
 C         5.9059818432        0.6263906216       -0.3495608072
 C         2.4154580000        0.6676808106       -2.7214556872
 C         1.4218217960        0.7692053684       -1.5616521330
 C        -0.1115866555        0.8382424984       -1.8682001442
 C        -0.8287963658        0.1938950782       -0.6305830244
 C        -0.8036887888        0.8573611551        0.6973197623
 C        -0.5951158192        2.3145077467       -1.9988915959
 C        -0.3900517630        0.0915997058       -3.2196973377
 O         1.8528512294        0.7451628972       -0.4498500358
 O        -1.4772296756       -0.8564679388       -0.8496038432
 C        -0.1255394807        0.0052977530        1.7679241744
 C        -0.4904535423        0.5439873194        3.1778553163
 C         0.5243779157       -0.0576482212        4.2599782021
 C        -0.0086218308       -1.5029500800        4.5072245503
 C        -1.2910392597       -1.6337442190        5.4343287169
 O        -1.4974782168        1.1860661507        3.4613940092
 O         0.4977724768       -2.5342697154        4.1242690250
 C         2.0219618271       -0.1095730553        3.9543107727
 C         0.3698405454        0.7026713496        5.6277082752
 C        -2.2838541906       -2.7418410919        5.1058018664
 C        -2.7120278954       -2.8358185454        3.6171920002
 C        -3.7512371731       -4.0083833288        3.2169635337
 C        -5.1101790053       -3.1295558273        2.9338184809
 C        -6.3140008713       -3.2985497347        3.9264870411
 C        -3.2121971641       -4.8173839558        2.0293332710
 C        -4.0432228150       -4.9925801349        4.4111705418
 O        -2.2407011009       -2.1469357167        2.7339126680
 O        -5.1322588258       -2.4802771791        1.9348524727
 C        -7.2073310689       -2.0615525274        3.7692845812
 C        -6.6623860233       -1.0623257239        4.7890849258
 C        -7.0895334311        0.4554396838        4.6045867895
 C        -6.7214258262        0.8540681188        3.1398563584
 C        -5.5166239475        1.8845121776        2.8682281759
 O        -5.9448845623       -1.3410303165        5.7384513146
 O        -7.1501782172        0.4312659894        2.0508595154
 C        -8.6427632559        0.3823182638        4.7086187454
 C        -6.3385712147        1.3435814206        5.5771047957
 C        -5.4131566845        2.4214325242        1.3923571053
 C        -4.9467042863        1.3269844784        0.3124501069
 C        -5.5758477893        1.3889269760       -1.1843010019
 C        -4.7099985848        0.3065119994       -1.9694492331
 C        -5.1696047187       -1.1312342412       -1.9226785350
 C        -7.0470102571        0.9748828595       -0.9081314998
 C        -5.5450975757        2.7438575317       -1.8631780174
 O        -4.2488747745        0.3568271563        0.5789979000
 O        -3.6946234010        0.6144740398       -2.4785397436
 C        -4.2222900543       -2.0398405427       -2.8820285114
 C        -3.7301649201       -3.3111216083       -2.3239814553
 C        -3.1401676360       -4.4564323225       -3.2472363649
 C        -1.8456329463       -3.6481388673       -3.9221242543
 C        -0.3925772010       -3.9545902343       -3.6954110806
 O        -3.5723679862       -3.4793126922       -1.0929778316
 O        -2.1755743473       -2.6632419590       -4.6206947772
 C        -2.7315195048       -5.6021511749       -2.3379992319
 C        -3.9482627561       -4.9546555725       -4.3914686319
 H         7.7205328498        6.9141754781       -4.1274780055
 H         8.7086981009        8.1319489300       -4.8404615044
 H         8.4089608269        6.7531177713       -5.8425948622
 H         9.6531542747        3.8022182315       -2.1544502080
 H         8.0013097800        4.3599547510       -2.7350948594
 H        11.2512882778        3.7220883252       -6.1120527504
 H        11.8324655088        5.4259959853       -6.2494558853
 H        10.2576948517        4.9882083722       -6.8400750137
 H        11.9398155575        3.6486213545       -3.7618433096
 H        12.4915654104        5.3261488291       -3.8006532880
 H        11.3627006357        4.7567343667       -2.5721251447
 H         8.2082856547        1.6215051795       -3.6359275791
 H         9.0327801351        1.5939641837       -2.0072585694
 H         3.5980265235        1.3634796419       -1.1331466974
 H         3.8035327074        2.2143244918       -2.7608206444
 H         6.8252605702       -1.4031162691       -2.0556641628
 H         8.2019415534       -0.4122843917       -1.7984010780
 H         7.3798643078       -0.4729877357       -3.3434738210
 H         5.2338167310       -0.1811361857       -0.0964746966
 H         6.7831494588        0.3885640039        0.2426462715
 H         5.4910340868        1.5476222925        0.0894805489
 H         2.3974047423       -0.3667395540       -3.1129493013
 H         2.1587728219        1.3406094737       -3.6232051266
 H        -0.2497105364        1.7313730242        0.6635025058
 H        -1.8851420229        1.0554855900        1.0000706570
 H         0.1760975813        2.9210546542       -2.4212013050
 H        -0.8914503242        2.7611126495       -1.0670839762
 H        -1.4712398888        2.2624763076       -2.5323070375
 H        -0.0740863128       -0.9647422636       -3.2190910420
 H        -1.4332242970        0.0366752993       -3.3855007815
 H         0.1392792531        0.4631326885       -4.0792445353
 H        -0.4191281029       -1.0653234297        1.6820523966
 H         0.9000724591       -0.0861547149        1.5927450091
 H        -1.0328750439       -1.7682801457        6.4575520209
 H        -1.8590847080       -0.6966500394        5.4210145089
 H         2.6297220159        0.1364334335        4.8536068270
 H         2.3235117922        0.4947217375        3.1569297597
 H         2.2264302950       -1.1113458772        3.6196240661
 H        -0.7270288492        0.6952788251        5.7937349689
 H         0.8315205087        0.0681477201        6.4129547586
 H         0.7459459423        1.7358976276        5.5471896000
 H        -3.1807346976       -2.5095080900        5.7012350444
 H        -1.8011433139       -3.6278439878        5.3312048746
 H        -6.8645711089       -4.1802846962        3.5510751769
 H        -6.0035398872       -3.4595719649        4.9818010081
 H        -2.2143177906       -5.1537207419        2.1517657830
 H        -3.2142514167       -4.2231512577        1.1280717365
 H        -3.7590751540       -5.7745803921        1.8521008507
 H        -4.7849153542       -5.7355118134        4.0642609628
 H        -3.1582037939       -5.6038311488        4.6277732004
 H        -4.4813809803       -4.6200921118        5.2948149954
 H        -7.0012018402       -1.5172810456        2.7715854466
 H        -8.3153791567       -2.1808081903        3.8645753632
 H        -5.4310757776        2.6408113007        3.6676662487
 H        -4.5923244406        1.2481395428        2.9398679994
 H        -8.9688047720       -0.3034058567        3.9071657448
 H        -9.2323601998        1.3058872919        4.6365652614
 H        -8.9820455847       -0.1064416635        5.6250892156
 H        -6.6770550031        2.3825670954        5.5717228730
 H        -6.4323966490        0.9456206096        6.5786741611
 H        -5.2517445783        1.2794538972        5.3380236543
 H        -4.7629239557        3.2373639201        1.3308311072
 H        -6.3377882435        2.7407593843        1.0177405604
 H        -4.9387514917       -1.3992754619       -0.8329176692
 H        -6.1928576497       -1.4086276236       -2.0507791009
 H        -7.4711240946        0.6508405542       -1.8653059692
 H        -7.6670039294        1.7239229719       -0.4364345640
 H        -7.0019949942        0.0096332050       -0.3616478311
 H        -6.0887416987        2.6689554905       -2.7710255512
 H        -6.0437770866        3.5018482038       -1.2818116885
 H        -4.5298513259        2.9623426344       -2.1208323545
 H        -4.9035695657       -2.2957846788       -3.7335121409
 H        -3.4365202351       -1.4404603155       -3.2820511636
 H         0.1968166037       -3.3640589609       -4.4195884361
 H        -0.0587223894       -3.7271716463       -2.6975195540
 H        -0.1206352402       -5.0262472315       -3.8227056906
 H        -2.0444205557       -5.4060917899       -1.5320043523
 H        -2.2284860562       -6.3650120874       -2.9732328930
 H        -3.6506100579       -5.9958583840       -1.9182439441
 H        -4.4480513968       -4.1273945320       -4.8996326647
 H        -3.1877559067       -5.2779087696       -5.0902671541
 H        -4.5067637495       -5.7890599286       -4.0875479012
 Na       -3.2625302178       -1.5908425208        0.5500484498
