155

 C         8.2822216406        6.9510697919       -5.3612970270
 C         9.1858251329        6.4369462964       -4.2508944041
 C        10.1120943377        5.2160852001       -4.4362408527
 C         9.1982549231        4.0004632905       -3.8978266379
 C         9.3249346156        3.6509970126       -2.3621917400
 C        10.3353030092        4.9181990374       -5.9710350504
 C        11.4710692828        5.2597522353       -3.7748298633
 O         9.1387756885        6.9232892268       -3.1069428187
 O         8.4162291154        3.4319639416       -4.5990182852
 C         8.6263105339        2.2689874055       -2.0509722865
 C         7.0776436439        2.3549279251       -2.0208390801
 C         6.2739207444        0.8826055667       -2.0635865583
 C         4.6602938885        1.0454040025       -2.3738964793
 C         3.9301973432        2.0884546965       -1.5671051578
 O         6.5348203920        3.4257488138       -1.9736940059
 O         4.0348040586        0.3604853665       -3.1644695514
 C         6.7791325341        0.0122412164       -3.2691047315
 C         6.5122724213        0.1348292572       -0.7934783918
 C         2.4404021916        2.2997835070       -1.9788450112
 C         1.4884217708        1.7867501389       -0.9514893631
 C         0.1285201493        1.4090861283       -1.4026773478
 C        -0.7013093596        0.5589744716       -0.2984019434
 C        -0.8898485636        1.1571011730        1.1614561171
 C        -0.6782270463        2.7721318398       -1.6375273156
 C         0.1969867442        0.5880893596       -2.7473134525
 O         1.8311526565        1.6246901188        0.2125724099
 O        -1.3049728595       -0.4754787307       -0.5668067102
 C        -0.2568291637        0.1103697327        2.1805590675
 C        -0.3473805254        0.7572709947        3.5725581654
 C         0.2372130477       -0.1541382080        4.7893383639
 C        -0.7624207183       -1.4745831155        4.7028553652
 C        -2.2980766032       -1.4573777221        5.1096659034
 O        -0.9784610942        1.7657680068        3.8521043717
 O        -0.2254471607       -2.5023198109        4.3200780576
 C         1.6533681375       -0.6072241364        4.4250522966
 C         0.1081100265        0.5183143170        6.2189950893
 C        -2.8406900128       -2.9321705540        4.9690208728
 C        -3.1846222892       -3.1971559028        3.4788358205
 C        -3.9503297139       -4.4163991071        3.0319495040
 C        -5.1292757115       -3.7418150886        2.1555070051
 C        -6.5989398669       -3.5791288506        2.7832584294
 C        -3.0901663161       -5.2092897150        2.0334310569
 C        -4.3324389554       -5.3766483373        4.1982828472
 O        -2.7941388848       -2.3721996051        2.6210916284
 O        -4.8420612971       -3.2218994105        1.1076205566
 C        -7.0271686021       -2.1681934555        2.5537615895
 C        -6.3267897437       -1.2364643308        3.6882301484
 C        -7.0241009079        0.1239618961        3.9649121926
 C        -7.1568010889        1.1436491492        2.7210015943
 C        -5.8864785784        1.9007308918        2.2349735533
 O        -5.2600936597       -1.5913307004        4.1493643485
 O        -8.2648879967        1.2799331923        2.2432872628
 C        -8.3784470050       -0.1191666105        4.6151516567
 C        -6.1006132163        0.6433747995        5.0528962623
 C        -5.9178341230        2.2835973662        0.7562156014
 C        -5.0743896115        1.2279828796       -0.0842724568
 C        -5.4606822135        1.0608887102       -1.5416436944
 C        -4.4192071484        0.1786297548       -2.2938345930
 C        -4.5616527235       -1.3701621029       -2.2125673918
 C        -6.9419198618        0.4396021102       -1.6601855337
 C        -5.5845122518        2.4417837462       -2.2297630245
 O        -4.3397433788        0.3821772980        0.4249086900
 O        -3.6654393817        0.7365299987       -3.1227273805
 C        -3.1144624092       -2.0055710701       -2.6146449325
 C        -2.8355626209       -3.3117901832       -1.9342421135
 C        -2.6047534969       -4.7379460507       -2.5998581685
 C        -1.1269235318       -4.6233694250       -3.3217871643
 C        -0.5552746372       -5.6954396027       -4.2649075401
 O        -2.7596571079       -3.2885308084       -0.7419802300
 O        -0.4786942143       -3.6675495183       -3.0460830303
 C        -2.6126763205       -5.8223366156       -1.5388129403
 C        -3.5790214190       -5.0410236911       -3.7672287630
 H         7.3421935241        7.4279288665       -4.9562049020
 H         8.8671717286        7.6088891377       -5.9896601665
 H         7.8784342726        6.0815009819       -5.8235582016
 H        10.3712875881        3.4612550079       -2.0041912257
 H         8.9005110825        4.3680214832       -1.6981065530
 H        11.0985691210        4.1839761426       -5.9092964309
 H        10.9258580052        5.7161117925       -6.4529483101
 H         9.5399573694        4.6074087264       -6.6046364767
 H        11.9998653471        4.3117594450       -3.9346043649
 H        12.0338494006        6.0492790059       -4.2825815880
 H        11.4450596177        5.5737736612       -2.7044960561
 H         8.8409309363        1.5610439955       -2.8762275598
 H         9.0300270854        1.6328344064       -1.2341648063
 H         3.9027520482        1.9856768103       -0.4852147603
 H         4.5681439847        2.9633258318       -1.5871535311
 H         5.9587431116       -0.7851701582       -3.2752621433
 H         7.7577249498       -0.3501701932       -3.0019806950
 H         6.7986341421        0.5817000844       -4.1754014525
 H         6.0256338304       -0.8520310864       -0.7615441405
 H         7.5712210966       -0.0169541802       -0.6667119736
 H         6.0921217908        0.7684753368        0.0526991706
 H         2.3368062473        2.0583223779       -2.9870843065
 H         2.1957489044        3.3925788656       -1.9184211031
 H        -0.3903030284        2.1513524167        1.4256444356
 H        -1.9265854983        1.2489365385        1.4349866729
 H        -1.6872600342        2.7130015419       -1.2127872721
 H        -0.7967493512        3.1026800815       -2.6396840436
 H        -0.0796715731        3.5192902044       -1.0291936718
 H         0.8178787419       -0.3238882590       -2.7004900069
 H        -0.8335871177        0.3132153683       -3.0515805317
 H         0.7277052651        1.1610510609       -3.5210896148
 H        -0.7471177374       -0.8829971335        2.2605669171
 H         0.7935391732        0.0415583976        1.8832742834
 H        -2.3902121461       -1.2056251115        6.2252415166
 H        -2.9741395847       -0.7517396904        4.5536839383
 H         2.1326493628       -1.0192388056        5.2909413776
 H         2.3048390886        0.3052175329        4.1667367860
 H         2.0019601567       -1.2446392349        3.6049961996
 H        -0.6502092669        1.2697226189        6.2625426850
 H        -0.0447075844       -0.2741035410        6.8993870552
 H         0.9539744298        1.1064095912        6.4041251117
 H        -3.7382984877       -2.9866225685        5.5362645082
 H        -2.1881865109       -3.7884198603        5.3342952376
 H        -7.1669048523       -4.3480322898        2.2134883243
 H        -6.7147850757       -3.8742554263        3.8011908333
 H        -2.1693682842       -5.6999258057        2.5091831016
 H        -2.7465546474       -4.6237768849        1.1679189258
 H        -3.5515472247       -6.0855279968        1.6647248151
 H        -5.0260469758       -6.1426440603        3.9279639937
 H        -3.3183865134       -5.7933934067        4.5127470670
 H        -4.8151770329       -4.7910636510        4.9875062716
 H        -6.6248056567       -1.8493606051        1.6087893097
 H        -8.0950700913       -2.0772078457        2.6658512807
 H        -5.7997252652        2.7653197352        2.8425139534
 H        -4.9699117658        1.2944286200        2.3978095983
 H        -9.1498740787       -0.5770777730        4.0401743361
 H        -8.6990260040        0.8519327761        5.1038338352
 H        -8.3571254035       -0.9032412007        5.4154122993
 H        -6.3694225242        1.5637763666        5.4748027021
 H        -5.9097657161       -0.2028357642        5.7559063093
 H        -5.1059868163        0.8473615718        4.5855146673
 H        -5.3822728108        3.3046775959        0.6156216598
 H        -6.9606426559        2.3823029682        0.2820530774
 H        -4.9534479059       -1.5820361570       -1.1665681617
 H        -5.3461247679       -1.7027660073       -2.8694321526
 H        -7.3774246623        0.4441575394       -2.6335935432
 H        -7.5711986250        1.0498032834       -1.0282995242
 H        -6.8594822549       -0.5945420481       -1.4091815011
 H        -5.8174603606        2.4061407259       -3.2832226516
 H        -6.3084384809        2.9829139513       -1.6938951232
 H        -4.6560795807        3.0120700537       -2.1967190570
 H        -2.9809524681       -2.0764396007       -3.7367114725
 H        -2.3450798768       -1.2813819009       -2.3528214580
 H        -0.4906006604       -6.7063894407       -3.9164967156
 H        -1.1878270941       -5.8440013265       -5.1438270674
 H         0.4185998796       -5.3735705341       -4.5739667725
 H        -1.6517965301       -5.8301539128       -1.0423969857
 H        -2.6141428648       -6.7807590715       -1.9842084999
 H        -3.2684462383       -5.5874989601       -0.7334846176
 H        -3.4553001597       -6.0764924139       -4.0193370339
 H        -4.5746101334       -4.7319290450       -3.4660604582
 H        -3.2491788159       -4.3924969266       -4.5583256924
 Na       -2.9698837910       -1.4377097657        0.3703748804
