155

 C         8.2071917511        6.9612626494       -5.3395129249
 C         9.0077005401        6.4360144579       -4.1781105175
 C         9.9343139871        5.1822439996       -4.4742226139
 C         9.2497254618        3.7676677830       -3.9017496366
 C         9.4466934451        3.4245997913       -2.4421256554
 C        10.2263878270        4.9900942051       -5.9179165509
 C        11.1880882951        5.4760260865       -3.6521281607
 O         9.0690843768        7.0452286836       -3.1585448998
 O         8.5304730876        3.1308067899       -4.6858173530
 C         8.6086164225        2.2309350708       -1.9460081574
 C         7.1435725212        2.3307077628       -2.0895232437
 C         6.3182736524        1.0456399025       -2.1786567874
 C         4.7901486340        1.2569137477       -2.3263182017
 C         4.1256989832        2.3018034619       -1.4130537741
 O         6.5348233494        3.3918384857       -1.9550666672
 O         4.0730495853        0.5301181588       -3.0039716256
 C         6.8419713247        0.2269503781       -3.4130647366
 C         6.4296128548        0.2540301503       -0.8178568852
 C         2.6113930335        2.5771083599       -1.6524910527
 C         1.6803442771        1.8150358534       -0.7621053027
 C         0.1804999522        1.5827823640       -1.2086890345
 C        -0.6724402058        0.7207840426       -0.2092672519
 C        -0.8350977753        1.3064275008        1.1102993896
 C        -0.5709749697        3.0363795510       -1.4099124952
 C         0.0707558586        0.7870115234       -2.5754738830
 O         2.0114247272        1.3979972917        0.3435784935
 O        -1.1130375785       -0.4156154966       -0.4600632085
 C        -0.1844807489        0.4411364867        2.2097118870
 C        -0.4607955485        0.7727721475        3.7152739443
 C         0.1163597976       -0.1843205056        4.8228253634
 C        -0.7041341840       -1.6319177114        4.7322638677
 C        -2.1455615642       -1.4999933012        5.1999304326
 O        -0.8582557326        1.8734107083        4.0339604244
 O        -0.1963977805       -2.6267845307        4.3273536536
 C         1.5512175661       -0.4997368318        4.5100873538
 C        -0.0900517925        0.4287843758        6.1897191860
 C        -2.9321515115       -2.7342085161        4.9378315564
 C        -3.0709498454       -2.9929076913        3.4134623238
 C        -4.0168261191       -4.2909938469        2.9771540576
 C        -5.1619866831       -3.6193930212        2.0561046442
 C        -6.6358110734       -3.4463487312        2.4757911202
 C        -3.1804425146       -5.2707929101        2.1016828987
 C        -4.6558316378       -5.0937650559        4.1671967351
 O        -2.5237234705       -2.2671705542        2.6503496371
 O        -4.8276290093       -3.2254305273        0.9532329656
 C        -7.0739387734       -1.9243826352        2.4470608800
 C        -6.3372452258       -1.1553223720        3.5373679769
 C        -7.0753984717        0.1994424867        4.1322443010
 C        -7.2398763829        1.0586128793        2.9207271980
 C        -5.9201266857        1.6701041164        2.3404151243
 O        -5.2639549536       -1.5360590635        3.9549411560
 O        -8.2193198550        1.0691526861        2.2400001939
 C        -8.5330695864       -0.2546482363        4.6995982382
 C        -6.2880943286        0.8630754516        5.2676114649
 C        -6.0912673180        1.9980447230        0.8326960624
 C        -5.2192950297        1.0376760094       -0.1674307936
 C        -5.5856930186        0.9138141444       -1.7885594036
 C        -4.3498139047        0.1367786330       -2.5973899190
 C        -4.1782240061       -1.4402984368       -2.2132246475
 C        -6.8735641975        0.0846091806       -1.9716542522
 C        -5.6951790072        2.3580924688       -2.3871990386
 O        -4.3338272347        0.3388187738        0.2943700048
 O        -3.6547481692        0.7298341015       -3.3498913381
 C        -3.0607090025       -2.2139686798       -2.7723490904
 C        -2.7461947370       -3.5389782944       -2.0109278766
 C        -2.5404703244       -4.8281521958       -2.7573129851
 C        -1.0091972395       -4.6988611136       -3.3492566499
 C        -0.6952225303       -5.6772117844       -4.4640348234
 O        -2.7285068537       -3.5178799197       -0.7855244514
 O        -0.2268859727       -3.8772725907       -2.9178112547
 C        -2.6473623572       -6.0456051004       -1.7646038904
 C        -3.6008131526       -5.1084452905       -3.8197566378
 H         7.6358214542        7.7821729414       -4.9220644977
 H         8.9669449497        7.3509312020       -6.0818388263
 H         7.3725057724        6.3487217277       -5.7075592864
 H        10.4519932075        3.2371575388       -2.1252246425
 H         9.1709849752        4.2775342176       -1.7420784418
 H        10.7584740825        4.0590812575       -6.1892175393
 H        10.8583680129        5.8114681749       -6.2304682778
 H         9.2604218555        5.0943899246       -6.4170995355
 H        11.9147009243        4.6723762268       -3.7569837166
 H        11.6204109617        6.4269806950       -3.9637033481
 H        10.9138912191        5.5813185753       -2.6191426739
 H         8.9400084256        1.2959062123       -2.3753614334
 H         8.7114425653        1.9638008987       -0.8914409262
 H         4.3267321602        2.1258577285       -0.3375804518
 H         4.6293969495        3.2723964960       -1.5022503907
 H         6.1341630864       -0.5556124589       -3.5610991509
 H         7.9025863791       -0.0959387025       -3.1795807361
 H         6.8288504450        0.9592758361       -4.2420824465
 H         5.6070052392       -0.4670812358       -0.8168692888
 H         7.3685814352       -0.3384971425       -0.6689481337
 H         6.2060522071        0.9442801741       -0.0283337634
 H         2.4861669830        2.2595224472       -2.7285254616
 H         2.3863235273        3.6282930070       -1.7422590527
 H        -0.3660983571        2.2304266900        1.1453710753
 H        -1.9266322591        1.4670740524        1.3690197107
 H        -1.3948211229        3.1207969459       -0.6544014152
 H        -1.2241305038        3.0608190928       -2.3664810199
 H         0.1082222114        3.8513685993       -1.2915728084
 H         0.8340049310       -0.0099095671       -2.5652321980
 H        -0.8832014880        0.2861797543       -2.6372456513
 H         0.3299056785        1.3625799259       -3.4592117355
 H        -0.4951582455       -0.6172479771        2.0958980638
 H         0.8794023636        0.5733311170        1.9385378859
 H        -2.1644181955       -1.3562701045        6.2617571227
 H        -2.6184600801       -0.6160426746        4.7507458563
 H         2.3039579467       -0.3282244214        5.3192926399
 H         2.0180809420       -0.0543004294        3.6687370279
 H         1.6817957946       -1.5291919335        4.1968118820
 H        -1.1627079518        0.5314067407        6.4573946617
 H         0.3995582892       -0.1641828071        6.9740741184
 H         0.2441755963        1.4535838603        6.0315304025
 H        -3.8560812420       -2.8062123064        5.5902276924
 H        -2.4215450656       -3.6227137832        5.2117625643
 H        -7.2764775712       -4.1417936700        1.9521056567
 H        -6.7409881235       -3.8516303459        3.5189032056
 H        -2.2914660051       -5.5788217456        2.5456757473
 H        -2.9288692327       -4.8119522596        1.1567271399
 H        -3.5846283494       -6.2984270615        1.9143214330
 H        -5.1023571947       -5.9762834810        3.6829061032
 H        -3.9078740552       -5.4003983011        4.8514676627
 H        -5.4695068214       -4.5805633747        4.6243065224
 H        -6.5902805142       -1.4278838642        1.5780849016
 H        -8.1499143165       -1.7614404788        2.5037614312
 H        -5.4808180729        2.5384569331        2.9147422596
 H        -5.1950776778        0.8424657753        2.3496030743
 H        -9.2492796995       -0.1965712421        3.8780029371
 H        -8.8696420280        0.2409622978        5.5697219928
 H        -8.6731626951       -1.2939637488        4.8089820512
 H        -6.8248575459        1.7759780285        5.6009118460
 H        -6.1264903454        0.1521574909        6.0379197353
 H        -5.3611152305        1.2764601895        4.9035009731
 H        -5.9869607946        3.0228583702        0.6514251452
 H        -7.0430982087        1.6805792915        0.4997135865
 H        -4.2671910334       -1.6307779836       -1.1712019472
 H        -5.1471548281       -1.8224520179       -2.6106795137
 H        -6.9314716586       -0.2722026487       -3.0227311600
 H        -7.7379603628        0.6957650552       -1.7423751981
 H        -6.7682777991       -0.9028035241       -1.4513921075
 H        -6.0472225539        2.3264578194       -3.4249257308
 H        -6.4465093938        2.9587833346       -1.7903776850
 H        -4.7612383090        2.9358703468       -2.4341139168
 H        -3.2253334728       -2.4394071663       -3.8085805921
 H        -2.1128557981       -1.6057552357       -2.8193524820
 H        -0.9171628672       -6.7047366998       -4.1102651275
 H        -1.2419218217       -5.7047852531       -5.4123624599
 H         0.3922729845       -5.6320521164       -4.6996216393
 H        -2.1762783497       -5.9401504241       -0.7661062331
 H        -2.1781910660       -6.9171095727       -2.2200064264
 H        -3.7173385303       -6.0887561104       -1.5445051382
 H        -3.0843457089       -5.7682780869       -4.5486867320
 H        -4.4110776706       -5.6907175116       -3.3636317495
 H        -4.0193972120       -4.1618304783       -4.1850419674
 Na       -3.0094047863       -1.6107598847        0.6595553961
