155

 C         7.9692642960        6.8977145138       -5.2613433393
 C         8.9032281245        6.3862401529       -4.1628421992
 C         9.7732263112        5.1767877861       -4.4612583707
 C         9.2410823450        3.7980763857       -3.8777390953
 C         9.4508048426        3.4976706692       -2.3875486525
 C        10.1707361716        4.9437399366       -5.9189287603
 C        11.1275910455        5.4267119369       -3.6147228822
 O         8.7942078480        6.9681866960       -3.0859316544
 O         8.7252689750        3.0255701817       -4.6168765328
 C         8.8049485783        2.2147766770       -1.9723763307
 C         7.2564286747        2.4184202785       -2.1405856054
 C         6.3212127440        1.2475895583       -2.1608710415
 C         4.6335605085        1.4976687700       -2.2063525746
 C         4.0668626427        2.5034527093       -1.2542355272
 O         6.9130873132        3.5674733307       -2.0921637964
 O         4.0063074579        0.8832270951       -3.0215747829
 C         6.6859644036        0.3398097175       -3.3900058074
 C         6.6267398093        0.2177532624       -0.9283395676
 C         2.5761981939        2.6267283133       -1.4898073937
 C         1.7157503260        1.7490220508       -0.6038430072
 C         0.1566794334        1.6831451012       -1.1203495832
 C        -0.6894038143        0.8685634770       -0.0652165216
 C        -0.8983259146        1.4050333698        1.3640699557
 C        -0.4245555744        3.0780163243       -1.2471496882
 C         0.2007962041        1.0688987847       -2.5051659029
 O         2.0600734128        1.1345241429        0.3636203727
 O        -1.2286226118       -0.1803477415       -0.3189529507
 C        -0.1628307653        0.3857121519        2.3774658296
 C        -0.3315423243        0.8319877584        3.8113407657
 C         0.1495282234       -0.1965410231        4.8639258468
 C        -0.6573228677       -1.5599465852        4.7967156250
 C        -2.0936016081       -1.6240063172        5.4590033940
 O        -1.0037757045        1.8112707529        4.0648180268
 O        -0.1450659866       -2.6038303076        4.3750007615
 C         1.6523489693       -0.4781177544        4.7585671122
 C        -0.0851861204        0.5131803647        6.2898249924
 C        -2.8428874551       -2.9228904672        5.0770019719
 C        -3.1681413019       -2.9463894038        3.5626991648
 C        -4.1976086525       -3.9953140241        2.9548523869
 C        -5.1759986002       -3.3567831568        1.8782813263
 C        -6.7374305972       -3.3570606357        2.3117035511
 C        -3.2001233367       -4.9014970350        2.1515839515
 C        -4.9832673761       -4.6941432666        4.2209277076
 O        -2.4450596214       -2.3238680526        2.7690410197
 O        -4.8841268342       -2.9417634838        0.7790677472
 C        -7.1031151232       -1.9303586364        2.5285751231
 C        -6.4112891714       -1.1369682556        3.6444668267
 C        -7.1825329126        0.1207684021        4.1281620140
 C        -7.2889429627        0.8971749157        2.7003618930
 C        -6.0807328776        1.4664953937        2.0133181361
 O        -5.2321569952       -1.2881214107        3.9484754018
 O        -8.4112682024        0.9918782209        2.2019172809
 C        -8.5778258939       -0.2811674910        4.6135132965
 C        -6.3545465534        0.8149475595        5.2737904133
 C        -6.1852355152        1.6164967468        0.4318717136
 C        -5.1705241734        0.6312423068       -0.2475388858
 C        -5.5380913802        0.6480919399       -1.8922063184
 C        -4.3528991989       -0.0863923626       -2.6128342495
 C        -4.2649587170       -1.5862509832       -2.2791752743
 C        -6.8970237795       -0.1478865872       -2.0265711542
 C        -5.6593306297        2.1203345509       -2.4199253794
 O        -4.2373529489        0.1379830637        0.3205689825
 O        -3.6125360429        0.5672992031       -3.3141804500
 C        -2.8485890212       -2.1260930791       -2.7336330011
 C        -2.6998759831       -3.5096369437       -2.1456719942
 C        -2.5415897353       -4.8464723289       -2.9680157527
 C        -1.1569024256       -4.8269560208       -3.5598591049
 C        -0.6129308941       -5.7390535466       -4.6538572159
 O        -2.6066919020       -3.5787714916       -0.9338166247
 O        -0.3488433865       -4.2082391464       -2.8406742813
 C        -2.3369640742       -6.0958016142       -1.9646967748
 C        -3.5811391022       -5.0728859361       -4.0835865147
 H         7.4113319510        7.7423672173       -4.9523535659
 H         8.5017637216        7.0224041217       -6.1353402411
 H         7.1229438234        6.2038808969       -5.2874342906
 H        10.5387125015        3.4285796798       -2.0463858068
 H         9.1999258760        4.2232267220       -1.6718988364
 H        11.0347706098        4.2429105775       -5.9152369307
 H        10.3778627490        5.8245607863       -6.5935108194
 H         9.2805758076        4.3819020754       -6.2914432902
 H        11.6695320636        4.4947940109       -3.5711162645
 H        11.6950925881        6.1711620446       -4.1647714752
 H        10.9304040970        5.7654519600       -2.5985273895
 H         9.3073111768        1.3735005209       -2.4862758390
 H         8.9069056187        1.9128994363       -0.9205970057
 H         4.3240747849        2.1266920401       -0.2484708484
 H         4.5215142841        3.5065338781       -1.1850513711
 H         5.7790405082       -0.2332603224       -3.4494264891
 H         7.5369322573       -0.2015990581       -3.2810051889
 H         6.6884563195        1.0668352156       -4.1831122997
 H         6.0975889775       -0.6948454457       -1.1793301324
 H         7.6523149397       -0.0253350181       -0.9045927534
 H         6.2790693430        0.6049112807        0.0251594688
 H         2.3821080299        2.5977106287       -2.5660461215
 H         2.3440169311        3.7232271195       -1.2887290432
 H        -0.6135552580        2.5182238866        1.5265954441
 H        -1.9127973257        1.3218744384        1.5631758958
 H        -0.5912365422        3.6157878553       -0.3621382260
 H        -1.3741730262        2.9485823115       -1.5731083820
 H         0.1461739805        3.6561951425       -1.9579246251
 H         0.4989511499        0.0383471339       -2.4647218393
 H        -0.8763882842        1.0712350823       -2.7318134317
 H         0.7637657752        1.5253648332       -3.3029440538
 H        -0.5586727486       -0.5845835502        2.2000237500
 H         0.8800154453        0.4306842884        2.1324773783
 H        -2.0108738463       -1.5777594183        6.5506542917
 H        -2.6060116490       -0.7366995198        5.1623831962
 H         2.2058546409       -0.3776418134        5.6440630192
 H         2.2321301984        0.1371159964        4.1026071764
 H         1.9166274923       -1.4091126458        4.3209123230
 H        -1.1422563908        0.4930793151        6.5235902668
 H         0.3333744052       -0.2067827303        7.0086134397
 H         0.3452503924        1.5620210646        6.2993784740
 H        -3.7771995599       -3.1074167744        5.5430585722
 H        -2.2538179380       -3.8566268318        5.4278519058
 H        -7.4234845751       -3.5962235512        1.4695273195
 H        -7.1173812274       -4.0884854787        2.9957178043
 H        -2.4417978118       -5.5352877956        2.6548015435
 H        -2.7581620052       -4.3445741723        1.3395404397
 H        -3.7372956631       -5.6553988800        1.6687755080
 H        -5.8274737950       -5.2752731471        3.9102207141
 H        -4.2655352288       -5.3597595803        4.7181649273
 H        -5.3537882201       -3.8562418661        4.8900774674
 H        -6.9628992804       -1.4212912390        1.5641382227
 H        -8.1822415483       -1.9645698269        2.8086764828
 H        -6.0907276499        2.4645515067        2.3785681843
 H        -5.1860898676        0.9278419350        2.3448808212
 H        -9.4238158504       -0.3908917436        3.9630889424
 H        -8.7623731340        0.3950409768        5.4396005797
 H        -8.6144884326       -1.2996137955        5.0185015515
 H        -6.7153930114        1.7916913940        5.5431955735
 H        -6.4195776827        0.1664249356        6.1815539411
 H        -5.3299361190        0.9581240570        4.9242592255
 H        -5.7870478489        2.6240814951        0.1445193832
 H        -7.2452724516        1.4558459089        0.1203786459
 H        -4.5497024460       -1.8255135558       -1.2296963563
 H        -5.0858900764       -2.0339669789       -2.8760943397
 H        -7.0249729103       -0.5200882943       -3.0320036399
 H        -7.6878348899        0.5986233498       -1.7864159962
 H        -6.9807511989       -1.0015878952       -1.4114719507
 H        -5.7030197283        2.1043894275       -3.5163654355
 H        -6.4698389023        2.7223869049       -2.0899435126
 H        -4.7460251384        2.6396767786       -2.1580887893
 H        -2.8496712901       -2.1434441579       -3.8349852745
 H        -1.9376197098       -1.6530131226       -2.4332931393
 H        -1.2729094034       -6.5686396942       -4.8938925755
 H        -0.6831135608       -5.2416803607       -5.6145526333
 H         0.4159749101       -6.0108857929       -4.5811721446
 H        -1.5831362671       -5.9749740458       -1.2300538683
 H        -1.9773681078       -6.9376220174       -2.6049339372
 H        -3.2889322259       -6.3093967154       -1.4823397309
 H        -3.4366714142       -6.0534276737       -4.4965222385
 H        -4.5705852371       -5.0642952332       -3.6237986963
 H        -3.5018249299       -4.1958058299       -4.7330688413
 Na       -2.6927371737       -1.6756775817        0.5381325432
