155

 C         6.8949747478        5.1725255034       -4.4499943488
 C         8.1274316170        5.9631901040       -3.9862282927
 C         9.5421863121        5.3109154149       -4.2931415430
 C         9.5176144112        3.8361423587       -3.6920173822
 C         9.4016837481        3.5086403319       -2.2443893715
 C         9.4531393450        5.0862364082       -5.8495136676
 C        10.7128662242        6.1263108118       -3.8576564221
 O         8.1967896452        7.0680395457       -3.5056297652
 O         9.5980990810        2.8319895911       -4.4299436783
 C         8.5820484288        2.2289298181       -1.9573330801
 C         7.0463711602        2.8142193474       -1.9858072433
 C         5.9096952409        1.7535914084       -2.1570042291
 C         4.5342828253        2.4042052112       -1.6660152335
 C         4.2530110220        2.5092068215       -0.0647305540
 O         6.7726753038        3.9842055733       -1.8996762772
 O         3.7070509036        2.6751175333       -2.5095338830
 C         5.8757553480        1.4873060320       -3.6580033839
 C         6.1296496910        0.3433028575       -1.4996391555
 C         2.7960609642        2.8739972827        0.1790086508
 C         1.8823246674        1.6162097832        0.2735905039
 C         0.4675465538        1.7559281974       -0.3694286203
 C        -0.6443157941        0.7819486500        0.2092276791
 C        -1.0807037866        0.9137895076        1.6733570408
 C        -0.2544562774        3.1408542680       -0.3903422286
 C         0.7383906793        1.2952699347       -1.7949891781
 O         2.2927018355        0.5757934655        0.8037141708
 O        -1.0405758074       -0.1581347992       -0.4972979285
 C        -0.1085613278        0.5247460921        2.7175935769
 C        -0.5210049880        0.6005613878        4.1822774164
 C         0.1315176166       -0.3203901516        5.2396183701
 C        -0.8191846909       -1.5809125433        5.3333870850
 C        -2.4291845300       -1.3840566004        5.4405278877
 O        -1.3855906474        1.4288002110        4.4430267718
 O        -0.4338052935       -2.7081921620        5.5890088004
 C         1.5564579853       -0.7412137631        4.9451350907
 C         0.0678448517        0.2266262610        6.6308341120
 C        -3.1488295367       -2.6205972930        4.9722079280
 C        -3.1308213940       -2.7382988991        3.4903482834
 C        -3.8510224747       -3.9914862458        2.8992564415
 C        -5.0634691665       -3.3887367219        2.1136499516
 C        -6.4176856697       -3.4055508317        2.7657116910
 C        -2.7278498087       -4.6393074060        2.0543206545
 C        -4.2411939256       -5.0709639509        3.9434090215
 O        -2.4801338853       -2.0180034396        2.6984415541
 O        -4.9844436502       -2.6578868803        1.1642313281
 C        -7.3030396494       -2.1670416598        2.5330707056
 C        -6.9709015492       -0.9551708094        3.5733126502
 C        -7.7176708373        0.5087805069        3.4490936146
 C        -7.7370944168        0.8448898661        1.9341609586
 C        -6.2892110684        1.2343076665        1.3174147181
 O        -6.2018217722       -1.1354588643        4.4589516406
 O        -8.6019003225        0.5265302430        1.1705090985
 C        -9.1463211033        0.3020670406        3.9069989255
 C        -7.0204957938        1.5852153596        4.2719931192
 C        -6.2671329496        1.1979826636       -0.2379118013
 C        -5.0691696278        0.4137595261       -0.7536197699
 C        -5.2211073813       -0.0164221397       -2.3454153139
 C        -3.8969859997       -0.2868545647       -3.0294472976
 C        -3.5020249276       -1.7991745678       -3.4713507391
 C        -6.1681536340       -1.2304331492       -2.3287588509
 C        -5.8458054771        1.1900279407       -3.1658776352
 O        -4.1186806244        0.1244492727        0.0029665726
 O        -3.0658333592        0.5833932518       -3.2367699369
 C        -2.0075194156       -2.2863921308       -3.1610904284
 C        -2.0763543002       -3.6719141358       -2.3620029868
 C        -1.9774137166       -4.9083116276       -3.2115419594
 C        -0.6485656931       -4.7805990619       -3.9958396219
 C        -0.4323673751       -5.8740088818       -5.0608867398
 O        -2.0706385561       -3.5630336372       -1.1430988394
 O         0.1837410580       -3.9865186291       -3.6784547890
 C        -1.6532833909       -6.2103765693       -2.2659488429
 C        -3.2132405567       -5.1764602740       -4.0661509707
 H         5.9246097704        5.6013170871       -4.0506824464
 H         6.7041747262        5.3579379254       -5.5645644245
 H         7.1299253949        4.1207936493       -4.3789367701
 H        10.4962056268        3.4103824391       -1.9405503891
 H         9.0034897100        4.2973988510       -1.6332903836
 H        10.1510444417        4.3302813680       -6.2273823117
 H         9.5938503260        6.0119453123       -6.2961003343
 H         8.4656228708        4.6619920056       -5.9473860514
 H        11.5740612345        6.0074704170       -4.5046258364
 H        10.4139422879        7.1870015025       -3.7222589118
 H        10.9233322981        5.7569257219       -2.8735223182
 H         8.6359159081        1.4836324916       -2.7737608941
 H         8.8602102897        1.9000960282       -0.9351219651
 H         4.3891481640        1.5904354426        0.4213589192
 H         4.8624612121        3.4090026133        0.2449643529
 H         5.0982775104        0.7519711460       -3.9307951442
 H         6.9710921837        1.0723254875       -3.7306084329
 H         5.7835027817        2.4066188589       -4.2650252923
 H         5.3885852425       -0.3817757249       -1.8572812749
 H         7.1475661679        0.0003160176       -1.8179844852
 H         6.0508947924        0.4006357866       -0.4709576044
 H         2.3866854981        3.6173828033       -0.5119459499
 H         2.8208297474        3.3276742270        1.1413026859
 H        -1.3817821393        1.9881014894        1.8765456061
 H        -1.9747614097        0.3107246102        1.8843876746
 H        -0.8444366042        3.5399398685        0.4647325971
 H        -0.9480309635        3.0807341394       -1.3107023556
 H         0.4361427447        3.9962348425       -0.5380648686
 H         1.3294666759        0.3841065330       -1.7671022055
 H        -0.2028722420        1.1864579904       -2.3588199924
 H         1.3587953581        2.0941173578       -2.1998245720
 H         0.3152549867       -0.5002288277        2.5273536438
 H         0.8577165447        1.1266283669        2.6453674997
 H        -2.4560754417       -1.2074703239        6.5194170898
 H        -2.8558551352       -0.5338186755        4.8606954257
 H         1.8205863308       -1.7259982592        5.4871147866
 H         2.3728189058        0.0095350941        4.9784133893
 H         1.5513326794       -1.0440414362        3.8523152978
 H        -0.7827772711        0.8269342375        6.8080764939
 H         0.1691028677       -0.5406191710        7.3333961082
 H         0.8144634426        0.9526724862        6.7088832433
 H        -4.1538686638       -2.7418829064        5.2841512858
 H        -2.5670349082       -3.5795811206        5.2376703618
 H        -6.9472419084       -4.2359879540        2.3440722339
 H        -6.2663173278       -3.4357367371        3.8574174353
 H        -1.9954436967       -5.1052121757        2.6968489779
 H        -2.1687197405       -3.9066267710        1.4529081977
 H        -3.0246375142       -5.5110774745        1.3649627405
 H        -4.5600093311       -5.9677994363        3.3141057135
 H        -3.3445456159       -5.3954741729        4.4539197412
 H        -5.0659418573       -4.8341377395        4.5927842682
 H        -7.3846426722       -1.6899699350        1.5980021846
 H        -8.3529103480       -2.5305210951        2.6292271915
 H        -5.9833623915        2.2135515878        1.7215467641
 H        -5.6005044028        0.5179560837        1.8423243986
 H        -9.7229406682       -0.6192479327        3.5228168634
 H        -9.7504933397        1.1665466819        3.5783161150
 H        -9.1668342899        0.4215584721        4.9923751295
 H        -7.7155239578        2.4879688452        4.2253731897
 H        -7.0642620645        1.1877397232        5.2831204999
 H        -5.9978977928        1.8290217752        4.0031064211
 H        -6.2850978435        2.1138989734       -0.7667868363
 H        -7.2060331833        0.7570335214       -0.5401847289
 H        -4.1840811708       -2.3972979012       -2.9178674404
 H        -3.6949969715       -1.9574097644       -4.5272279997
 H        -6.2350987481       -1.7469782602       -3.2956200201
 H        -7.1561966577       -0.9603472203       -1.9834325927
 H        -5.7282008188       -1.9993016239       -1.7353680620
 H        -5.9548117106        0.8461837851       -4.1777498000
 H        -6.8697803063        1.3912989115       -2.8825049933
 H        -5.2921481421        2.0842395628       -3.2960270181
 H        -1.3859265118       -2.3902622866       -4.0009709201
 H        -1.4807727135       -1.6763884010       -2.3867316861
 H         0.3526985036       -5.6645420849       -5.7798125650
 H        -0.1944974076       -6.8145350181       -4.6210444396
 H        -1.2867207856       -5.9561207602       -5.7467595905
 H        -0.9199183424       -6.1390441189       -1.4827831127
 H        -1.4230047401       -7.0733875651       -2.8762402591
 H        -2.5781375437       -6.3690092557       -1.7640226537
 H        -3.0436062114       -5.8320510389       -4.9237565145
 H        -4.0302133538       -5.6265190446       -3.5310862555
 H        -3.6511589233       -4.2213545877       -4.3839717541
 Na       -2.6662096802       -1.8039026600        0.2554707035
