155

 C         7.3784839867        6.3389673986       -6.1817322456
 C         8.0446292122        6.6720697431       -4.8203487577
 C         9.2548588031        5.7035056084       -4.3688717837
 C         8.6579347530        4.3056701890       -3.7681472604
 C         8.8399613577        3.8821713021       -2.3453266305
 C        10.1697865368        5.4331094422       -5.5539277510
 C        10.0453540550        6.5050105618       -3.3028786497
 O         7.7774930037        7.6702993993       -4.1752490822
 O         8.0427639925        3.4989274006       -4.4864185483
 C         8.0829883127        2.5725554096       -1.9426580797
 C         6.6185710197        2.9210184343       -1.6253005839
 C         5.6311050045        1.7118962517       -1.6102693410
 C         4.2082815439        2.1936160817       -1.2877264943
 C         3.9767952211        2.7593853650        0.1613666083
 O         6.2636837758        4.0451711951       -1.5177622451
 O         3.2771397923        2.1455939491       -2.0745037454
 C         5.5457241457        1.2193024856       -2.9914383392
 C         6.0780779994        0.6436951460       -0.5810543415
 C         2.4979423726        3.0146878545        0.4215335057
 C         1.9282033802        1.6592033896        0.8520500469
 C         0.7238937615        0.9410472779        0.0449706735
 C        -0.2588466277        0.2309737143        1.0025790106
 C        -0.7066875894        0.8322938715        2.4354837848
 C        -0.1979697729        2.0314842458       -0.6230417787
 C         1.2073114995       -0.0541187821       -0.9941558441
 O         2.3863860403        1.1078787784        1.8709582673
 O        -0.8752658275       -0.7221958297        0.5180564127
 C         0.1154574420        0.0877248701        3.5023344757
 C        -0.3683828808        0.5505039567        4.9373739849
 C         0.0630786577       -0.5481951129        6.0796582356
 C        -0.8318857265       -1.8728049814        5.6389894624
 C        -2.3699968237       -1.5918137906        5.3942232548
 O        -1.0095000765        1.5183039177        5.2235809024
 O        -0.3644227612       -2.9648063371        5.3532533381
 C         1.4804251072       -0.9198709204        5.9394681361
 C        -0.3094057437        0.0647427426        7.4419806559
 C        -3.2858484025       -2.7249127910        4.8161221318
 C        -3.3659027326       -2.7378433409        3.2829181830
 C        -4.2648278421       -3.9509639404        2.5524193672
 C        -5.2706589346       -3.3812738228        1.4174092489
 C        -6.7581729236       -3.5780456282        1.4724752971
 C        -3.0879983036       -4.9171376987        1.9880694232
 C        -5.1826240932       -4.7718150924        3.6217580027
 O        -2.8280272632       -1.8744022547        2.5981080546
 O        -4.7221447651       -2.8008639198        0.5121016460
 C        -7.6126290067       -2.2980560052        1.0986821067
 C        -7.5519810000       -1.3734174810        2.3169720795
 C        -8.3706029687       -0.0170338172        2.1981209641
 C        -8.0569555605        0.6211297567        0.8756351379
 C        -6.7252118043        1.4817634947        0.6137837765
 O        -6.9817000317       -1.7107556072        3.3412285344
 O        -8.8159771908        0.3474361483       -0.0265239542
 C        -9.8566362227       -0.4294577549        2.2928862740
 C        -7.9699256879        0.8373922660        3.4186150530
 C        -6.3093144553        1.3417970756       -0.9179639606
 C        -5.2068924439        0.2660095652       -0.9867021488
 C        -4.9430137842       -0.3121573408       -2.4291465994
 C        -3.3639729470       -0.6827550276       -2.6090527276
 C        -3.0925914168       -1.4739145173       -3.8942030329
 C        -5.6625762399       -1.7995016667       -2.4674530960
 C        -5.3605505666        0.5748979878       -3.5987324788
 O        -4.6251754682       -0.0783304253        0.0021342628
 O        -2.4276688778       -0.2492035763       -1.9949713970
 C        -1.6993357488       -2.1100555681       -3.8554257840
 C        -1.6004362846       -3.0633700100       -2.6975083570
 C        -0.6172667401       -4.1689233951       -2.7036223909
 C         0.8471833816       -3.8453570473       -3.2078734881
 C         1.8201461021       -4.9748843990       -3.2384287011
 O        -2.4361652311       -3.0576046260       -1.7996732959
 O         1.1954378313       -2.6970486547       -3.5535566760
 C        -0.4786870145       -4.8453338426       -1.2809214355
 C        -1.0916261508       -5.2476761531       -3.6568761578
 H         6.4163395459        5.7546568188       -6.2628657407
 H         7.1382013932        7.3543902133       -6.5639072405
 H         8.0732609508        5.8297130274       -6.9042940143
 H         9.9177052661        3.8010497212       -2.2408437621
 H         8.5206330840        4.8046836283       -1.7591140870
 H        10.9302897155        4.7279508994       -5.2306762902
 H        10.6165050972        6.3779515945       -5.9679445398
 H         9.6606864653        4.9479534103       -6.4228372071
 H         9.8112662109        6.4035906558       -2.2466941709
 H        11.1139978444        6.3973814953       -3.3763067006
 H         9.8543904949        7.5763586475       -3.5339391306
 H         8.3098318674        1.7363223002       -2.5966565536
 H         8.5780278298        2.1898300285       -1.0075386672
 H         4.3064041092        1.9533433537        0.8110838465
 H         4.7212328039        3.4778484958        0.5265552682
 H         4.6384541412        0.7047475461       -3.1463987236
 H         6.3454626924        0.5533781943       -3.3891139478
 H         5.6978728039        2.0206919329       -3.7516507780
 H         5.4149247298       -0.1943936078       -0.5451359032
 H         6.9870947044        0.2317428840       -0.9045060608
 H         6.2876240970        0.9182140356        0.4793444376
 H         1.9879679840        3.3885196266       -0.4592298855
 H         2.2255352682        3.7633911985        1.1761639857
 H        -0.5039201960        1.8870538888        2.4837119117
 H        -1.8216852762        0.5705055846        2.4629333993
 H        -0.0327338605        2.9616577183       -0.1856145843
 H        -1.2646784493        1.7694349854       -0.7009230651
 H         0.0619674340        2.0853172031       -1.6467353657
 H         2.0312230257       -0.6206551025       -0.6721868390
 H         0.3078624874       -0.5491356259       -1.2860683607
 H         1.5224327450        0.5949817774       -1.7937632657
 H        -0.0650150349       -0.9987899466        3.4764608993
 H         1.2004978175        0.3058331397        3.2672935973
 H        -2.8586658823       -1.1992962660        6.2508039881
 H        -2.4165998635       -0.8112861260        4.7342735468
 H         1.4776849144       -1.9497463447        6.4455506428
 H         2.0445868652       -0.2831663421        6.5906831789
 H         1.7349805759       -0.8540938056        4.8360094853
 H        -1.3805942720        0.0657903706        7.6504842841
 H         0.2196427705       -0.3847748515        8.3084198914
 H         0.0960156023        1.1411816514        7.5036629640
 H        -4.3378414988       -2.7084737183        5.0876437469
 H        -2.8717948361       -3.7021176873        5.1946643402
 H        -7.1485345921       -4.3176847948        0.7073535107
 H        -6.9976333090       -4.0233764882        2.4659853307
 H        -2.5694445741       -5.2024718462        2.9502596069
 H        -2.4663332972       -4.4157314118        1.2160877271
 H        -3.4533006898       -5.8177928380        1.6023070070
 H        -5.7304601022       -5.5415195429        3.1773115923
 H        -4.5244932999       -5.1638624293        4.4029276707
 H        -5.8790987613       -4.0730909254        4.2207159783
 H        -7.0190883457       -1.9057163081        0.2937204765
 H        -8.6538237499       -2.5420535702        0.9265129431
 H        -6.8856064389        2.5758306733        0.7954137472
 H        -5.8330493817        1.3237956111        1.2612906189
 H       -10.3442867078       -0.5753579588        1.3332323008
 H       -10.2640993973        0.2819916565        3.0023947964
 H        -9.9578016260       -1.3651569448        2.9332708076
 H        -8.3631130683        1.7919759477        3.5467473070
 H        -8.3262604886        0.2207364388        4.2381712728
 H        -6.9196520739        1.0153926969        3.5063865634
 H        -5.9523813808        2.3069079533       -1.1981387031
 H        -7.1084624524        1.1921552689       -1.5602180271
 H        -3.7246734117       -2.3076941103       -4.0589177747
 H        -3.1686486301       -0.7862308498       -4.7619716051
 H        -5.4685508034       -2.1087727214       -3.4590749808
 H        -6.7267917283       -1.6464499050       -2.2934066735
 H        -5.3551124962       -2.5718874192       -1.9010809782
 H        -5.1626468565        0.0264021848       -4.5361182969
 H        -6.4403666346        0.8172911903       -3.6100096329
 H        -4.8158675711        1.5508049821       -3.5149855078
 H        -1.5311682002       -2.6130511228       -4.8101022051
 H        -0.9318798804       -1.3814180758       -3.8308739560
 H         2.6067124487       -4.8596144823       -3.9893301479
 H         2.3943709589       -4.8343632874       -2.3438370388
 H         1.4725400946       -6.0010481415       -3.3574030168
 H        -0.3304672142       -4.1925291070       -0.4373812880
 H         0.4151698040       -5.5265874626       -1.3240794835
 H        -1.3916063617       -5.4482918560       -1.2139806864
 H        -0.2668396129       -5.8579653682       -4.0530642906
 H        -1.7470502688       -6.0497769428       -3.2312303426
 H        -1.6644399551       -4.8621572474       -4.5342753079
 Na       -2.6454016535       -1.8364513904        0.1817111807
