155

 C         7.3505396851        6.1364405745       -6.0767374602
 C         8.1614117166        6.7062642294       -4.8905504307
 C         9.3765008335        5.8102000462       -4.3504619948
 C         8.7015284550        4.5362189703       -3.8467644855
 C         8.9098150026        3.9863447969       -2.4476392331
 C        10.4331884385        5.7404138591       -5.5350326063
 C        10.1015349125        6.6383500816       -3.2959894711
 O         7.9000635871        7.7234614066       -4.3750916791
 O         7.8926738508        3.8862908800       -4.5451045631
 C         8.0640772289        2.7439507747       -2.1164306226
 C         6.5941227418        3.1286270092       -1.8238356927
 C         5.6723680665        1.8534831200       -1.5883063235
 C         4.2544163946        2.2066433399       -1.2775830456
 C         4.0455652325        3.1706339891       -0.0843668414
 O         6.2096994758        4.2543150155       -1.7818011994
 O         3.2810869066        1.9547026344       -1.9409885879
 C         5.6390727175        1.0180634651       -2.9392085655
 C         6.3174070201        1.0313453312       -0.3974070834
 C         2.6888936727        3.1490748332        0.5042026029
 C         2.1865044408        1.7531364294        0.6967660533
 C         1.0142734274        1.0443525006       -0.0039393419
 C        -0.0069287220        0.4507907025        1.0217127023
 C        -0.2536846821        1.0063535644        2.4136702522
 C         0.2239364136        1.9043216196       -1.0271299204
 C         1.4817086057       -0.1808172093       -0.7165918666
 O         2.8128683443        1.0928948139        1.5602998809
 O        -0.5625707558       -0.6083268729        0.7617185921
 C         0.2575933618        0.0657602455        3.5602315192
 C        -0.4779878102        0.3081852521        4.8362968142
 C        -0.4592022323       -0.7982314040        5.9024081959
 C        -1.4925176800       -2.0178552598        5.6747995662
 C        -2.8158569187       -1.5708637047        5.1676612227
 O        -1.0972084243        1.3125696950        5.1352418181
 O        -1.1187938053       -3.1406292978        5.7962765385
 C         1.0150386940       -1.3817867675        6.0716273732
 C        -0.8273923220       -0.1822016398        7.2989536085
 C        -3.6562768727       -2.7007765988        4.6413266386
 C        -3.4372902515       -2.9342319082        3.0994460493
 C        -4.2419918638       -4.1641836118        2.4278674029
 C        -5.2412254449       -3.5723132931        1.3380441481
 C        -6.7137143475       -3.6652468641        1.4592321575
 C        -3.1789744740       -5.0998045706        1.7872086306
 C        -4.9509036457       -4.9338205667        3.4865595374
 O        -2.6942192637       -2.2336260862        2.4512459445
 O        -4.7496817959       -3.0857304427        0.3239993271
 C        -7.4355631255       -2.3054110589        1.1107816038
 C        -7.6835404376       -1.3114276861        2.3889722803
 C        -8.5540777077       -0.0467374336        2.1954704074
 C        -8.2857252350        0.4459222001        0.8328351790
 C        -6.9187196622        1.0966838705        0.6209809858
 O        -7.1951696009       -1.7077394014        3.4508407885
 O        -9.0474105670        0.3325290171       -0.0996719872
 C       -10.0778304160       -0.5273071886        2.2809950482
 C        -8.1961300927        0.9830687924        3.3258464893
 C        -6.5704006881        1.0602344050       -0.8979242382
 C        -5.3899731301        0.1740214501       -1.1081164851
 C        -5.0651553110       -0.4103228619       -2.5188169283
 C        -3.4662024683       -0.6160307837       -2.6752994707
 C        -3.0758729273       -1.5331187881       -3.8122091861
 C        -5.8545932894       -1.6354858736       -2.8757556272
 C        -5.4131214099        0.7761441477       -3.5639941481
 O        -4.7911779230       -0.2703507257       -0.1855832635
 O        -2.6484737263       -0.0747376834       -1.9820180387
 C        -1.6073088276       -2.0942163569       -3.5616466156
 C        -1.4293414406       -3.2097044249       -2.4403239675
 C        -0.3112231916       -4.2666939732       -2.5551269957
 C         1.0965047307       -3.5678798946       -2.7110810531
 C         2.3142634653       -4.4644365594       -2.8703299968
 O        -1.8979465914       -3.0776306275       -1.3360924076
 O         1.0878725441       -2.3164272099       -2.7754388877
 C        -0.3197301531       -5.1560125918       -1.1826873028
 C        -0.5734048168       -5.2842701012       -3.6755097673
 H         7.9426518098        5.6905206212       -6.8283466144
 H         6.5189779146        5.5178474075       -5.6346290510
 H         7.0337455100        6.9417665691       -6.6421916393
 H         9.9523102471        3.8283091971       -2.3370174049
 H         8.6378899903        4.7569143769       -1.6543939921
 H        11.3944361661        5.5689483589       -5.0948827855
 H        10.5178709413        6.6640058730       -6.0797324908
 H        10.2698383973        4.9679124876       -6.3358894747
 H         9.3987094124        7.4168394390       -2.9817151707
 H        10.4256753371        6.1194552811       -2.3990075649
 H        11.0168697975        7.1055783992       -3.7061622877
 H         8.0734674865        2.0402607758       -2.9348712360
 H         8.5759228521        2.2652003139       -1.2513059344
 H         4.7459207863        2.9465631547        0.7216929526
 H         4.3433865072        4.1969782790       -0.2496837762
 H         5.2560059477        0.0628178734       -2.6808619272
 H         6.5539800522        0.7094871626       -3.5841475039
 H         5.0124069236        1.4596175533       -3.7405729992
 H         5.5730111621        0.4039966798        0.1698675650
 H         7.1603387938        0.3919106132       -0.6815328909
 H         6.6498647981        1.7299775193        0.4102635843
 H         2.0130451901        3.6911912280       -0.0751824115
 H         2.7212384830        3.6449374021        1.4514858256
 H         0.1588989770        2.0154395470        2.5172571388
 H        -1.3639896260        1.1977420584        2.5800844586
 H        -0.5601527139        2.4071696527       -0.5594014611
 H        -0.2188973393        1.3250112712       -1.8710503520
 H         0.8322276753        2.5755997511       -1.5330158984
 H         1.9477058154       -0.7676564793        0.0626631808
 H         0.5474869901       -0.6940540753       -1.0809499664
 H         2.2785052942        0.1212711732       -1.4216026670
 H         0.2543496725       -1.0314963984        3.3999731472
 H         1.3528189019        0.3587624665        3.8291002078
 H        -3.4223146901       -1.0871240779        5.9168593265
 H        -2.7532277698       -0.8784032023        4.4118058425
 H         1.0906412071       -1.6863566780        7.1362320517
 H         1.7827083436       -0.6396017428        5.8422738766
 H         0.9050767596       -2.2782231246        5.4680315024
 H        -1.6350603974        0.5301455252        7.2188030911
 H        -1.3271737517       -0.8915413617        7.9789853314
 H         0.1045651711        0.1971814497        7.8223738728
 H        -4.7151067809       -2.6534396751        4.8735795627
 H        -3.3132954156       -3.6287665519        5.1126712965
 H        -6.8683826603       -4.3501722830        0.5778615379
 H        -7.1352000242       -4.0220432416        2.4047473086
 H        -2.5402856151       -5.4420596812        2.6094189081
 H        -2.6977170039       -4.6201899026        0.9372880481
 H        -3.6929377824       -5.9040618586        1.3782898626
 H        -5.4411920754       -5.7808437730        3.0665235686
 H        -4.2964352588       -5.2101370128        4.3160466435
 H        -5.6894371791       -4.1906266563        3.9264889507
 H        -6.6564299604       -1.7076695571        0.6468806461
 H        -8.3171959587       -2.4708044886        0.5024659314
 H        -7.0089298215        2.1587165565        1.0017841483
 H        -6.1049043734        0.6473808340        1.2379525305
 H       -10.3263268111       -1.2791778658        1.5290430158
 H       -10.5920444314        0.3803468029        2.1078241146
 H       -10.2148767362       -1.0859487046        3.1951183794
 H        -8.7203709835        1.9520186089        3.2725634435
 H        -8.3175089892        0.5773408008        4.3525471308
 H        -7.1747263445        1.3146781739        3.2293164368
 H        -6.3527823633        1.9961008678       -1.3860488203
 H        -7.4214026926        0.7784445420       -1.4234246916
 H        -3.7355289249       -2.3549175512       -3.9382335104
 H        -3.1708131225       -0.9638201390       -4.7480259685
 H        -5.6636856618       -2.0834111370       -3.8742727892
 H        -6.9756296292       -1.5406812068       -2.6764124436
 H        -5.4799329658       -2.3453864563       -2.1363408671
 H        -5.2954982734        0.4667293299       -4.6067726408
 H        -6.3930619835        1.1600894538       -3.3658162801
 H        -4.7395540967        1.5894531557       -3.3278129038
 H        -1.0976150213       -2.3604687914       -4.5070047582
 H        -1.1252004189       -1.2488144675       -3.1823614711
 H         3.1273368984       -3.9701403544       -3.4188469185
 H         2.7503518980       -4.6496118451       -1.8992674747
 H         2.0946513705       -5.4683966378       -3.3251675730
 H         0.3348210039       -4.6745866415       -0.4938942419
 H         0.1315677356       -6.1855968850       -1.3892795829
 H        -1.3470853873       -5.3761528386       -0.9481025501
 H        -0.1671648700       -6.1999530121       -3.2865291344
 H        -1.6191795436       -5.4736285838       -3.9782243987
 H        -0.0107655236       -5.1200209313       -4.6229269392
 Na       -2.7377079018       -1.5430517868        0.2364169577
