155

 C         7.4267918119        6.2499287460       -6.1626154089
 C         8.1972333805        6.8443165883       -4.9431631681
 C         9.3647688065        5.9499755550       -4.3757767074
 C         8.7117512963        4.5870444358       -3.8857753881
 C         8.9564402051        4.1860341252       -2.4555757978
 C        10.2985754181        5.6130005452       -5.5201372667
 C        10.0793020439        6.6491085087       -3.2399187890
 O         7.8688558683        7.9239416313       -4.4661905680
 O         8.1545452032        3.8875773813       -4.6654220556
 C         8.1770769240        2.8801236963       -2.1005783778
 C         6.6857133797        3.1989106370       -1.8572716962
 C         5.7648808222        1.8721722890       -1.6638096409
 C         4.3431198570        2.4302470885       -1.3383656065
 C         4.1155561193        3.2330416596       -0.0680664582
 O         6.1689106704        4.2882433886       -1.8541016672
 O         3.3654494430        2.0476685676       -1.9626571898
 C         5.7335490423        0.8729171436       -2.8347072392
 C         6.2554409088        1.1856011458       -0.3828910965
 C         2.5668550600        3.1313090318        0.4170951226
 C         2.3268194509        1.6651283651        0.6996005488
 C         1.2385967983        0.9249710306        0.0268283567
 C         0.0656309434        0.3865858055        0.9916857435
 C        -0.1240734644        1.0413979066        2.3540382055
 C         0.4997954834        1.7626929490       -0.9703623067
 C         1.9380583650       -0.1892502053       -0.7611988355
 O         3.1080376313        1.0792688243        1.3769054402
 O        -0.8114915411       -0.3423622744        0.5804513754
 C         0.1885467110        0.1201995210        3.4950963282
 C        -0.6512243899        0.2662969184        4.9018114167
 C        -0.6112048792       -0.8785652204        5.9557119552
 C        -1.6609650246       -2.0231084276        5.5941868086
 C        -3.0098074433       -1.4762688295        5.1168340629
 O        -1.1855983243        1.2913950589        5.1584442580
 O        -1.5432206764       -3.2411582069        5.8828351799
 C         0.7989036554       -1.5659690560        6.1670796488
 C        -1.1584592209       -0.4558810510        7.3555421520
 C        -3.9673882774       -2.6528182867        4.5071566915
 C        -3.6467837542       -3.0097300746        3.0571521240
 C        -4.2552528969       -4.3309365274        2.3856052196
 C        -5.1215232948       -3.6567992801        1.3805850568
 C        -6.6942871248       -3.6236731624        1.6797900404
 C        -3.0332029839       -5.1542805970        1.7615917135
 C        -5.0640003049       -5.2490485844        3.3911727186
 O        -2.8899706141       -2.2945626793        2.4201312817
 O        -4.7186568068       -3.0151650990        0.4318041563
 C        -7.5139438815       -2.3458386324        1.2550305636
 C        -7.7115111066       -1.4609630713        2.4169147833
 C        -8.6207838736       -0.2238917212        2.2484148532
 C        -8.3184298706        0.3631076866        0.7852312287
 C        -7.1258344045        1.3264734256        0.4202386998
 O        -7.1583056653       -1.6108252650        3.4947943920
 O        -9.1937896052        0.2621834798       -0.0583963039
 C       -10.1704476094       -0.6263819030        2.3351022403
 C        -8.3968532014        0.7848919931        3.4181559402
 C        -6.6067022796        1.1154428589       -0.9682952003
 C        -5.3689829524        0.1700237361       -1.1792519772
 C        -4.9835615371       -0.2760878378       -2.6388928717
 C        -3.4448233178       -0.6117268765       -2.6740763227
 C        -2.9928522744       -1.8494662161       -3.4606011727
 C        -5.9855442373       -1.5414346420       -2.9496127931
 C        -5.3102010043        0.7758470511       -3.7467195515
 O        -4.8016836558       -0.1941874665       -0.1608241834
 O        -2.7542662723       -0.0044151446       -1.8746750184
 C        -1.5535525702       -2.2105722254       -3.4066361381
 C        -1.3241983449       -3.2184138741       -2.2568412376
 C        -0.1142522854       -4.2130610870       -2.4645875305
 C         1.2975855450       -3.5425222613       -2.5338339990
 C         2.5690671903       -4.4720797135       -2.6484306951
 O        -1.9810953505       -3.2267763396       -1.2364235994
 O         1.3147660690       -2.3436379142       -2.6210259180
 C        -0.1530898145       -5.1687170442       -1.2013843779
 C        -0.3196526019       -4.9351221901       -3.8430171849
 H         7.7256057440        6.6741072166       -7.1588155912
 H         7.2171272202        5.2251162562       -6.0188789449
 H         6.4382674239        6.8424457581       -6.2197396391
 H        10.1037974350        4.1039361697       -2.3482094106
 H         8.6731032129        4.9142674971       -1.7278243891
 H        11.2329860750        5.0385863779       -5.2807400240
 H        10.7096104188        6.5577637194       -6.0074338285
 H         9.7459534755        5.0906888196       -6.2719220004
 H         9.3345271313        7.1385955165       -2.6037876216
 H        10.6939534421        5.9741619779       -2.6334969433
 H        10.7459481006        7.4116438030       -3.6213150994
 H         8.1996406165        2.1425058987       -2.9416978252
 H         8.6544250130        2.4767148472       -1.2108795155
 H         4.8418961381        3.0883036582        0.7434048985
 H         4.3406509951        4.2787389048       -0.4263363315
 H         4.9151968650        0.1067113366       -2.8340015225
 H         6.5503756256        0.2675796553       -2.8932780963
 H         5.6946274109        1.3844088168       -3.7821200373
 H         5.4199497823        0.7172300895        0.0583071954
 H         6.9959562904        0.4241015248       -0.5574788898
 H         6.6110250276        1.8924772367        0.3801078746
 H         1.9276512572        3.6027581851       -0.4284873221
 H         2.3881716163        3.6997221009        1.3744481380
 H         0.4783282988        1.9581592133        2.4208797188
 H        -1.1145352986        1.4717102286        2.3920376088
 H         0.2274925876        2.7926622927       -0.6333042769
 H        -0.4852218948        1.4015985768       -1.0865414623
 H         0.9744736902        1.8512323835       -1.9703949349
 H         2.8723278734       -0.4331003223       -0.2508815271
 H         1.2974299752       -1.0027019065       -0.7047171303
 H         2.1693743631        0.1836785298       -1.7275433446
 H         0.2543292007       -0.9500929864        3.3137889794
 H         1.1666606616        0.3771839110        3.7383018088
 H        -3.6416313006       -1.0860643669        5.9018578173
 H        -2.9350763115       -0.6823556085        4.3057106003
 H         0.6950382085       -2.4210726998        6.8768475239
 H         1.3545933201       -0.7385652138        6.6044863760
 H         1.1102582733       -1.9631765491        5.1636519858
 H        -2.0576479365        0.1841290242        7.2100261483
 H        -1.6981735888       -1.2728545543        7.8372858217
 H        -0.4480732005       -0.0126301469        8.0326558262
 H        -5.0580687942       -2.3736415955        4.5772173231
 H        -3.9545531842       -3.6104480617        5.0787812648
 H        -7.2183677127       -4.4030152492        1.1630553852
 H        -6.7854672770       -3.6193628806        2.7908722808
 H        -2.3286735717       -5.1959288485        2.5799993167
 H        -2.6079545451       -4.5872566020        0.9287051851
 H        -3.3609920808       -6.1862287274        1.4421873856
 H        -5.7578945842       -5.9223152889        2.8617507761
 H        -4.3224371845       -5.8783876177        3.9051257084
 H        -5.5843838485       -4.6478760272        4.1042249003
 H        -7.0643440852       -1.8789189535        0.3266265165
 H        -8.5856989402       -2.6350802840        1.0496662216
 H        -7.6983519345        2.2412375188        0.4533172362
 H        -6.3100318268        1.4369727640        1.1320373609
 H       -10.2299921947       -1.6546059945        2.0487576942
 H       -10.6836778574       -0.0558338982        1.5343116428
 H       -10.4506529409       -0.7649493126        3.3540798596
 H        -9.0360184096        1.6330870613        3.3802163190
 H        -8.5516748019        0.3222450642        4.3607422913
 H        -7.3509821306        1.1356224447        3.5088098385
 H        -6.3073213901        2.0435199409       -1.4786627700
 H        -7.5154936765        0.9444657483       -1.6111296957
 H        -3.4998260619       -2.7267545344       -2.9710800453
 H        -3.4289337898       -1.9223633085       -4.4599749729
 H        -6.0236859340       -1.7725538327       -3.9848958010
 H        -6.9629945296       -1.1793136708       -2.8105277070
 H        -5.8679272977       -2.4146281759       -2.3490377870
 H        -4.7946534987        0.4852084394       -4.6638738851
 H        -6.4201292090        0.8268084904       -3.8725515072
 H        -4.9351830032        1.7792976490       -3.4400713283
 H        -1.2963157061       -2.6429553877       -4.3464551847
 H        -0.9025732693       -1.2798387361       -3.2182008138
 H         3.4366147923       -3.9268484451       -2.9982662350
 H         2.8511112751       -4.9014637163       -1.6674039038
 H         2.3440240426       -5.3129389565       -3.2509984699
 H         0.1042662972       -4.6185101029       -0.2729588620
 H         0.5946896604       -5.8581723608       -1.4436256092
 H        -1.0476131123       -5.7882063383       -1.2691907460
 H         0.3151576253       -5.8130144422       -4.1430619934
 H        -1.4013563882       -5.0987763802       -3.9817575043
 H        -0.0849052350       -4.2096809339       -4.6062805779
 Na       -2.6852002853       -1.4790779833        0.1088580531
