155

 C         7.3732682135        6.6786224519       -6.1572006119
 C         8.2408965613        7.0514053339       -4.9895092582
 C         9.7156002058        6.3805785209       -4.8105260639
 C         9.2986703611        4.8922539937       -4.1788318336
 C         9.0022399330        5.0029315073       -2.6549798845
 C        10.4269782052        6.1225543274       -6.1969772056
 C        10.5967002747        7.2460946619       -3.8162499400
 O         7.7911211212        7.7175891163       -4.0816375641
 O         9.3681875458        3.9572142509       -4.8933344086
 C         8.2538720460        3.7424202766       -2.0469524670
 C         6.7022830644        3.8553374046       -1.6565405959
 C         6.0277645529        2.4619789829       -1.5216483540
 C         4.3934853693        2.6030568776       -1.3527282731
 C         3.9332050953        3.4719334709       -0.1494665484
 O         6.1282692356        4.9032978407       -1.5572540352
 O         3.5808573126        2.0503751592       -2.0530134886
 C         6.3155990343        1.6380762453       -2.8222323649
 C         6.5112813444        1.7230303454       -0.2365775590
 C         2.3878487377        3.1960826098        0.0882158114
 C         2.2810198872        1.7670254616        0.8138309882
 C         1.4357417940        0.5631487621        0.2109067485
 C         0.2157983825        0.0726509634        1.2544551338
 C         0.6059170093        0.0833639274        2.7124716890
 C         0.7059835128        0.8053435075       -1.0963151969
 C         2.4175832761       -0.6749728246        0.1708474148
 O         2.7976929605        1.5656012867        1.8700651058
 O        -0.8098913823       -0.2415147358        0.7346195698
 C        -0.4522440282       -0.7686359976        3.4402670772
 C        -1.0367770025       -0.2191497231        4.6439334848
 C        -1.3001161636       -1.1223723790        5.8702449846
 C        -2.3006098775       -2.1636847467        5.4788000213
 C        -3.8841305896       -1.9296235563        5.5045745790
 O        -1.4683887716        0.8924291675        4.6347252924
 O        -1.8488259875       -3.1980043851        4.9451149699
 C        -0.0995105288       -1.9394111277        6.3698912868
 C        -1.7355502776       -0.2315052987        7.0735713583
 C        -4.6535918872       -3.0153739839        4.6829450291
 C        -4.1832426549       -2.9518435937        3.2577411538
 C        -4.4182251840       -4.1675499890        2.2998681239
 C        -5.4978641756       -3.6497889625        1.3829951662
 C        -6.9518416112       -4.0799838946        1.6085112353
 C        -3.1940132454       -4.4671461041        1.4417668135
 C        -4.6806786504       -5.4740418630        3.0811507270
 O        -3.7705224313       -1.9425732405        2.7285671100
 O        -5.3040600395       -2.9140959442        0.3619435766
 C        -7.9501643424       -2.8805890079        1.2430150132
 C        -8.0057820308       -1.6497009823        2.1482210216
 C        -8.9484867311       -0.6118170788        1.6210887361
 C        -8.3448432169       -0.0282827629        0.2577974073
 C        -7.3142711211        1.0960398815        0.3325973262
 O        -7.0721404612       -1.4135403200        2.9038191036
 O        -8.6649055709       -0.5544054980       -0.8130531130
 C       -10.3909705788       -1.1778234268        1.3778542195
 C        -9.0519522149        0.5516824672        2.6627163658
 C        -6.4441247798        1.1166855964       -0.8916626381
 C        -5.3489383652        0.1256255135       -0.9699977903
 C        -4.8525700935       -0.3358390528       -2.3876008496
 C        -3.3889502366       -0.7903942220       -2.2187911763
 C        -2.9406299480       -2.0909694777       -2.9414629225
 C        -5.8206981336       -1.3927703639       -2.9465172023
 C        -4.7936905928        0.9364872511       -3.2949901016
 O        -4.6993500806       -0.2441731064       -0.0372692595
 O        -2.5833095413       -0.1930316504       -1.5564943712
 C        -1.3775970486       -2.2017265529       -2.8131473667
 C        -0.7635405287       -3.1480764868       -1.7177025436
 C         0.2305505190       -4.2276668801       -2.1413947987
 C         1.6564588461       -3.4462062977       -2.3859718263
 C         2.8010733092       -3.7410852669       -1.4342068961
 O        -1.0683526439       -3.0879403941       -0.5173213617
 O         1.6697371756       -2.6729395393       -3.3293323540
 C         0.2543495838       -5.5476309485       -1.3205925261
 C        -0.0314703412       -4.6905568077       -3.7142529997
 H         7.8260202740        6.0323116785       -6.9703539862
 H         6.6144498184        5.9617359504       -5.8665252645
 H         6.8195535859        7.6537761553       -6.4200242699
 H         9.9083794414        5.1793218082       -2.1137333637
 H         8.4483999550        6.0061311695       -2.5795956269
 H        11.2534622335        5.3624894129       -6.0561998545
 H        10.8629412534        6.9449874733       -6.7587443931
 H         9.6852821535        5.7234994884       -6.8895991381
 H        10.1430229533        7.3951378386       -2.8222205503
 H        11.5087296970        6.6270683877       -3.6867932088
 H        10.8530184458        8.1636657936       -4.3236983696
 H         8.3230184472        3.1318384876       -2.9382626315
 H         8.8063134151        3.3860982515       -1.1677619480
 H         4.4811781067        3.2021957083        0.8132067650
 H         4.0988632843        4.4889250779       -0.4891786156
 H         5.5978194667        0.7658179764       -2.7718195894
 H         7.2714876438        1.2988533153       -2.9326554612
 H         6.1168528469        2.1491314114       -3.7453050611
 H         6.0955100857        0.7209892025       -0.2389964668
 H         7.5947788214        1.7352943036       -0.3297324251
 H         6.2236512300        2.3286285590        0.5607780925
 H         1.7389985999        3.3981384982       -0.7969190112
 H         2.0518218294        3.9601708694        0.8676919446
 H         1.6419875534       -0.3361628699        2.7318869535
 H         0.6807345084        1.1002637475        3.0471202860
 H         0.1117778526        1.7143687184       -1.2071205511
 H         0.1953323363       -0.0600751135       -1.3228418335
 H         1.4140255274        0.7624551390       -1.9243356855
 H         2.7408652399       -0.7203861696        1.2135443737
 H         1.8642097418       -1.5561339661       -0.1783461583
 H         3.2605891356       -0.4595119753       -0.4840011179
 H        -1.3446652856       -0.7313527343        2.8923779126
 H        -0.2370113173       -1.8480361741        3.6126917453
 H        -4.4200773953       -1.8832356764        6.5208855968
 H        -4.0308618729       -0.8827081531        4.9687408728
 H         0.6327940686       -1.3242188904        6.9185553541
 H         0.4733358447       -2.5054364238        5.6233910581
 H        -0.3870138361       -2.7778604647        7.0609932805
 H        -2.8572270287        0.0055255295        7.0572932418
 H        -1.4216461968       -0.6391412374        8.0759582302
 H        -1.3322733646        0.7587750543        7.0288553192
 H        -5.7811539762       -2.9122053284        4.7129391687
 H        -4.5726383731       -3.9834489989        5.1074073115
 H        -7.2801675872       -4.9725126202        1.0201497846
 H        -7.2252634363       -4.2465416550        2.6339241004
 H        -2.3473316232       -4.7309335356        2.0188500638
 H        -3.0411706164       -3.5912224511        0.8315111780
 H        -3.4369448738       -5.3375809798        0.7215912338
 H        -4.5517760787       -6.2933410653        2.3005815950
 H        -3.9221389408       -5.5519993049        3.8505522661
 H        -5.5818140629       -5.6127923696        3.5618432595
 H        -7.8100796258       -2.6129683964        0.1548822963
 H        -8.9535318425       -3.2696608112        1.0160810128
 H        -7.9664399231        1.9729273065        0.3680442832
 H        -6.6268704187        1.0753285492        1.1355616625
 H       -10.1362322657       -2.0586421613        0.7844674400
 H       -10.8986686043       -0.4380624810        0.7831035783
 H       -11.0430125562       -1.2806944067        2.2049315014
 H        -9.6979571039        1.3565661602        2.2894407617
 H        -9.4006316557        0.1601488457        3.5831498880
 H        -8.0887369065        0.9859384533        2.7441626606
 H        -5.9777959050        2.1661805957       -0.8926567405
 H        -7.1039250623        0.9530440332       -1.7921960074
 H        -3.5080096494       -2.9434551056       -2.5514074388
 H        -3.2742576737       -1.8605880303       -3.9679715466
 H        -5.3934547316       -1.8586682478       -3.7803184650
 H        -6.7130013706       -0.9225463423       -3.1037273029
 H        -5.9688131355       -2.1672819060       -2.2064083226
 H        -4.9365863425        0.6621881816       -4.3837604771
 H        -5.7093954745        1.4178925480       -2.9518501905
 H        -3.9576514469        1.6246071718       -3.1517392561
 H        -0.8791288015       -2.2779800315       -3.8313696485
 H        -1.0454603794       -1.2145273186       -2.3894139495
 H         3.3104706154       -2.8023729928       -1.2594267319
 H         2.4041437317       -4.1447259616       -0.4972785833
 H         3.5991024790       -4.3905983860       -1.8069099903
 H         0.1100360289       -5.2205643661       -0.2539999992
 H         1.2181085642       -5.9613657904       -1.4120367102
 H        -0.6487382343       -6.0793644447       -1.5793512701
 H         0.4067150582       -5.6791070974       -3.9514800169
 H        -1.1034716032       -4.8204024249       -3.7890510538
 H         0.3329226502       -3.8558006262       -4.3601567365
 Na       -2.9748599824       -1.4636067480        0.6136385897
