155

 C         7.1922279165        7.1958401744       -5.9928591060
 C         8.2669486293        7.6647586703       -5.0714118524
 C         9.6259847043        6.7736451594       -4.9117749787
 C         9.4045832098        5.6158853983       -3.7349855173
 C         7.9557778589        5.2446100303       -3.3207921330
 C         9.9246570493        6.0232380937       -6.1983502250
 C        10.7064405003        7.7491438446       -4.3746063649
 O         8.1598826210        8.6263244870       -4.3449085518
 O        10.3400819906        4.9649602694       -3.4057079492
 C         7.9816250391        4.2266022505       -2.2709519774
 C         6.5455427734        3.9863042016       -1.6578920163
 C         6.0840667920        2.4154301510       -1.3171261714
 C         4.5058258620        2.3536712404       -1.2098535840
 C         3.7660417553        3.1604742748       -0.1827580298
 O         5.9127381869        4.9525521768       -1.4626552056
 O         3.8614994636        1.7928386128       -2.0560970770
 C         6.5083589236        1.3534722977       -2.4031194520
 C         6.7158759682        2.0094002523        0.1001932493
 C         2.2106240440        2.8300324334       -0.1377585712
 C         1.7513935913        1.8451295136        0.9101022580
 C         1.3439181033        0.3252491715        0.4096214822
 C         0.2457884710       -0.3052296438        1.3524434885
 C         0.2610809843        0.0156786010        2.8006230360
 C         1.0708769758        0.2547099775       -1.0384366240
 C         2.5607097155       -0.6240048901        0.7564537406
 O         1.7588413372        2.1005011592        2.0694643906
 O        -0.5539896288       -1.0289340442        0.8330673717
 C        -0.6622260302       -0.8082862292        3.7606848418
 C        -0.7131812215       -0.1075187283        5.0900254535
 C        -1.1724202987       -1.0916454354        6.3287271622
 C        -2.2188389331       -2.0695828820        5.6631352983
 C        -3.8202310617       -1.7332520456        5.4346147014
 O        -0.4020041031        1.0157531437        5.3538015957
 O        -1.8880172166       -3.1437626609        5.2544670256
 C         0.0439950229       -1.9231983006        6.7951242933
 C        -1.8576265534       -0.1386077497        7.4259829539
 C        -4.4950169313       -2.8896717373        4.6965047652
 C        -4.1114050804       -3.1050514539        3.2811732988
 C        -4.5562406690       -4.3070719486        2.2910271568
 C        -5.2198440790       -3.7340734997        1.0129403134
 C        -6.6015450035       -4.3327126046        0.5526225983
 C        -3.2750792604       -5.0700565817        1.8837968021
 C        -5.3796393706       -5.4020253934        3.0299830917
 O        -3.2343576635       -2.3310639411        2.8562360707
 O        -4.6712873241       -2.8900368315        0.3926672292
 C        -7.6037302828       -3.1738367830        0.0729416352
 C        -8.2421542932       -2.3275816012        1.1179389181
 C        -9.0190435988       -1.1054138081        0.6211485175
 C        -8.1284438507       -0.1772591001       -0.2861639151
 C        -7.1142571962        0.7389577565        0.3048026191
 O        -8.0777878510       -2.5867579401        2.2780783483
 O        -8.1091030980       -0.3180925727       -1.5134026710
 C       -10.1906209963       -1.5339610175       -0.3082401582
 C        -9.5411711714       -0.2252900520        1.8866897891
 C        -6.1542631728        1.2246290062       -0.8230255563
 C        -4.9183799447        0.2639304768       -0.9593269904
 C        -4.6147814307       -0.2576342524       -2.4217800050
 C        -2.9707956826       -0.5170933104       -2.3977896401
 C        -2.4195175082       -1.2759504633       -3.6414049835
 C        -5.3363828247       -1.6532856910       -2.5826988564
 C        -4.9851767647        0.6763965954       -3.5738348481
 O        -4.3800568540       -0.0638730411        0.0654223885
 O        -2.2303705875        0.0228274374       -1.6597873703
 C        -1.1902940051       -2.1153117399       -3.3222117839
 C        -1.3745307183       -2.9361599974       -1.8985008194
 C        -0.2069066070       -3.9508779366       -1.4457895486
 C         1.2622318374       -3.5678142659       -2.2163106999
 C         2.2652190103       -4.6310127821       -2.1405980149
 O        -2.4310194262       -2.8683809831       -1.2845552461
 O         1.5673933493       -2.4073801833       -2.5325105771
 C         0.0629108229       -3.8488881620        0.1000219111
 C        -0.6558353829       -5.3685913416       -1.8164876258
 H         6.7294950361        6.1865181569       -5.6755450326
 H         6.4354557313        7.9542364640       -6.1432578782
 H         7.7369170092        6.8650792773       -6.9775154712
 H         7.3515989485        6.1552951562       -3.0372678341
 H         7.4705988986        4.7662988953       -4.1590557778
 H        10.9553475433        5.7670849358       -6.3689990505
 H         9.5909359632        6.5791165258       -7.0339358976
 H         9.4797819532        4.9985873425       -6.1579836134
 H        10.4976081020        7.9994409473       -3.3465682879
 H        11.6782767132        7.3178786732       -4.5419685134
 H        10.5588159867        8.7211223114       -4.8805664639
 H         8.5982521912        3.3512500384       -2.4471768286
 H         8.6352187300        4.6690175843       -1.4976400905
 H         4.3046575784        3.1689426049        0.7455730712
 H         3.9323610719        4.2627591316       -0.4870856978
 H         5.7132970608        0.5913753004       -2.4562017940
 H         7.3880193916        0.8724375216       -2.1219656694
 H         6.4791964683        1.7313046025       -3.3815015321
 H         6.6949483478        0.8728532054        0.1796667149
 H         7.7486698539        2.3611999208        0.0569891214
 H         6.2072666383        2.5465917196        0.8328005568
 H         1.7680595774        2.6325627711       -1.1038742623
 H         1.7616788999        3.8019758643        0.2078224231
 H         1.2300615367       -0.0714877280        3.1818395347
 H        -0.1349687801        1.0590373984        2.7822287418
 H         0.0807724795        0.6335234105       -1.2282939861
 H         0.8960967984       -0.7052133543       -1.3160908153
 H         1.6912053622        0.7815664154       -1.7087974945
 H         2.9320722327       -0.4785159946        1.7745611238
 H         2.2528286561       -1.7084899097        0.5921270042
 H         3.3072227680       -0.3527427776       -0.0072872539
 H        -1.6528764583       -1.0923636616        3.4366634911
 H        -0.1749800447       -1.7108360614        4.0753637733
 H        -4.3686660855       -1.5451795825        6.3922408232
 H        -3.9696149497       -0.7475209493        4.8245551115
 H        -0.2634428551       -2.5441488794        7.6453352142
 H         0.9435429056       -1.3239973942        6.9526727469
 H         0.3292327656       -2.7295532981        6.0145114950
 H        -2.9540035458       -0.3060205952        7.4410541272
 H        -1.5182635247       -0.3203394497        8.4913155762
 H        -1.6798573475        0.8586599488        7.0301208744
 H        -5.5256978316       -2.6913180864        4.8466711204
 H        -4.0771440003       -3.8419255421        5.1640069162
 H        -6.5584888729       -5.1529185109       -0.1682542743
 H        -7.1302272760       -4.9270412542        1.3492009188
 H        -2.6551750812       -5.1240262452        2.7529936482
 H        -2.6940218342       -4.5311652274        1.1505563517
 H        -3.5257455645       -6.1082548394        1.5717404912
 H        -5.3826305686       -6.4129367388        2.5620114813
 H        -4.8332308082       -5.6169032534        3.9607074525
 H        -6.3687656806       -5.1316848778        3.3135985061
 H        -7.0914052626       -2.5579748742       -0.6803131055
 H        -8.3728804246       -3.7368016742       -0.5051697004
 H        -7.5802201757        1.4962947548        0.8527843245
 H        -6.5687625968        0.1547708822        1.0494250911
 H       -10.3345504072       -2.6083518389       -0.0596377138
 H        -9.7878839087       -1.5747701155       -1.2922030924
 H       -11.1022093708       -1.0466710538        0.0476086411
 H        -9.8432171199        0.7631709626        1.4917343712
 H       -10.4463781741       -0.6400523569        2.3471678608
 H        -8.7466999966       -0.2485173698        2.5454324265
 H        -5.7265160313        2.2907758587       -0.5677790091
 H        -6.7761541887        1.3598566441       -1.7589549980
 H        -3.1853887959       -1.8519430398       -4.1355791187
 H        -2.1657545529       -0.3684692924       -4.2210202804
 H        -5.1316387380       -2.0994015849       -3.4887112386
 H        -6.3261799528       -1.4088304202       -2.7059246343
 H        -5.1395168601       -2.1906264286       -1.6499390660
 H        -4.5155209917        0.3821388195       -4.5470105868
 H        -6.0600066076        0.6558865443       -3.6913685184
 H        -4.6070306678        1.6688559562       -3.4056683168
 H        -1.0048612768       -2.8384968904       -4.1791767661
 H        -0.2591446321       -1.5461377030       -3.2392279072
 H         1.9630755768       -5.5938498945       -2.5613224612
 H         3.1818726006       -4.3636170360       -2.6581181631
 H         2.4627770162       -4.7494283249       -1.0200859350
 H         0.7883599111       -3.0929363834        0.3940877096
 H         0.2384061025       -4.8930829350        0.3868845079
 H        -0.8395212662       -3.5941313499        0.6238557932
 H         0.0600782418       -6.0930888769       -1.5685936411
 H        -1.5799059262       -5.5164313525       -1.2927766662
 H        -0.8405021389       -5.3027625295       -2.9301563508
 Na       -2.7256507362       -1.6501258988        0.7398673776
