155

 C         7.1704414514        7.3792101638       -5.9101694976
 C         8.3116122393        7.7981010562       -4.9791634361
 C         9.5488935221        6.9057530505       -4.7868677034
 C         9.3182722631        5.8165428850       -3.6873295940
 C         7.9341699301        5.0577808733       -3.6387828988
 C         9.7819123447        5.9810492054       -6.0728259521
 C        10.7427152672        7.8466365926       -4.4989570028
 O         8.1417462455        8.8183310554       -4.3087555487
 O        10.0857859378        5.7150770017       -2.7930029993
 C         7.9000694186        4.3219435410       -2.3617172977
 C         6.4203684848        3.9561859635       -1.7756060196
 C         6.1385485025        2.5481385399       -1.2167682990
 C         4.5632617868        2.3124444060       -1.2913621345
 C         3.7160519046        3.1489620216       -0.2754293879
 O         5.6618599356        4.8593953745       -1.7703926852
 O         4.0522510209        1.4330347199       -1.9469871149
 C         6.6689676317        1.2969730672       -2.0199791558
 C         6.6855431341        2.4833184433        0.2159161083
 C         2.2251367352        2.9385888305       -0.2963840437
 C         1.7220718958        2.0402970045        0.8709003947
 C         1.5660267606        0.5329930985        0.6017916433
 C         0.2942296770        0.0036239651        1.5501178570
 C         0.5024934663        0.1148007648        3.0902421340
 C         1.2019917809        0.1164550551       -0.8992524787
 C         2.9453297516       -0.1463719304        1.0078596137
 O         1.7722019485        2.4434062466        1.9782339563
 O        -0.7263052734       -0.3885017772        1.0094686093
 C        -0.3570944413       -0.8245881026        3.9803042495
 C        -0.7908098730       -0.1700650080        5.3664690975
 C        -1.2791259174       -1.2454991431        6.3690473428
 C        -2.2830115976       -2.3164350859        5.6747681713
 C        -3.7048138892       -1.7872202522        5.3796137919
 O        -0.6805362634        0.9666426834        5.7336703238
 O        -2.0125570676       -3.5126877638        5.5211784740
 C        -0.0719137403       -1.9763973418        6.9843027071
 C        -2.0702037452       -0.5046128409        7.6048675870
 C        -4.4803927374       -2.7139593995        4.4680868385
 C        -3.9613104831       -3.0167910320        3.1161467572
 C        -4.6766160846       -4.2519452187        2.3965757438
 C        -5.3915947520       -3.7169997296        1.1504515220
 C        -6.7177339479       -4.5014532471        0.8637924318
 C        -3.5882823799       -5.1647244335        1.8814713303
 C        -5.5428951911       -5.0905394452        3.3772027135
 O        -3.3447038443       -2.1065258764        2.4885332513
 O        -4.9986698467       -2.8952509266        0.3509881880
 C        -7.5560482341       -3.6340503445       -0.0460309714
 C        -8.0215531663       -2.4538544344        0.7323686922
 C        -9.0412225783       -1.3843120438        0.1949544377
 C        -8.2357371617       -0.3011617508       -0.6033548782
 C        -7.2201776576        0.5612277328        0.1712591262
 O        -7.7738259967       -2.3584777854        1.9208514541
 O        -8.2942143288       -0.2787060922       -1.8555327877
 C       -10.1030417772       -1.9417542898       -0.6742964775
 C        -9.5670954452       -0.6061382945        1.5342028048
 C        -6.0475939359        1.2207509046       -0.7260439543
 C        -4.8505281655        0.2748073372       -0.8989555105
 C        -4.3824568591       -0.1635117529       -2.3586150206
 C        -2.9149456381       -0.4952405636       -2.4611953238
 C        -2.3708078988       -1.4545414044       -3.5501936702
 C        -5.2246651174       -1.4978000436       -2.5620268317
 C        -4.8358264975        0.7859793773       -3.4446606516
 O        -4.3405410411       -0.1257966659        0.1232672060
 O        -2.2021066656        0.0104912385       -1.6331583590
 C        -1.0228732626       -1.8897339078       -3.2023162967
 C        -1.2315547890       -2.9900004269       -2.1290445804
 C        -0.1849365788       -3.9713327986       -1.6129927122
 C         1.2707668668       -4.0710389119       -2.1631760928
 C         1.8907693759       -5.3941728103       -2.6309442821
 O        -2.3108020373       -2.9808636523       -1.4818486232
 O         1.9580900707       -3.0556990350       -2.1019759277
 C         0.0593547880       -3.5411407925       -0.0677359108
 C        -0.8559828713       -5.3887163600       -1.5760636220
 H         7.2705448604        6.3440684993       -6.3054290433
 H         6.2445928358        7.8053052085       -5.4290194663
 H         7.3551888255        7.7737865678       -6.9434554917
 H         7.0401021970        5.7582293254       -3.6790383470
 H         7.7893806459        4.3766842009       -4.5024787695
 H        10.4440562216        5.1241661189       -5.9643364817
 H        10.0875899652        6.5255006229       -6.9025139118
 H         8.8073614375        5.5598144804       -6.3071973829
 H        10.4770482454        8.6588509552       -3.8292569203
 H        11.5768718624        7.2259331360       -4.1858894784
 H        10.9765137190        8.3218392488       -5.4578118053
 H         8.6026210915        3.4884519974       -2.3222506666
 H         8.2860184479        4.9092094537       -1.5028053847
 H         4.1204937621        2.9415579283        0.6963279757
 H         4.0018567520        4.2305217304       -0.4378114523
 H         6.1844744366        0.4008046854       -1.4447229426
 H         7.7124955653        1.1448364974       -2.0119818803
 H         6.0924981399        1.2806099230       -2.9635769838
 H         6.2207396231        1.5933924675        0.7541737321
 H         7.7960165113        2.2740959123        0.2097261817
 H         6.5806921898        3.4608292873        0.6260988473
 H         1.8542724304        2.5401891050       -1.2429455270
 H         1.7801100956        3.9603441408        0.0014963733
 H         1.5686065560        0.0860964812        3.3178384185
 H         0.1009135527        1.1658960095        3.3222503087
 H         0.3449132205        0.5946571133       -1.3735186849
 H         1.1278816228       -0.9058853454       -0.9403905720
 H         1.9831972676        0.3948763008       -1.5773693795
 H         2.9311713406       -0.0663339844        2.0757360322
 H         3.1054007801       -1.1770192329        0.6035684108
 H         3.7438761387        0.3546848492        0.5200105109
 H        -1.2913877143       -1.1102991321        3.4975130140
 H         0.1337246392       -1.8147528844        4.1001603733
 H        -4.3334239490       -1.6737727314        6.3066174254
 H        -3.4653221532       -0.7286576844        4.8891426075
 H        -0.4060522167       -2.8355007890        7.7213483043
 H         0.4458559215       -1.1767341456        7.4686472420
 H         0.7568010598       -2.2532872850        6.2510514998
 H        -1.7688903234       -0.9379068226        8.5698044292
 H        -1.7913745311        0.5519420994        7.5065882451
 H        -3.1154170124       -0.6890643686        7.5579686564
 H        -5.4799914168       -2.3654737698        4.3151817385
 H        -4.3670437565       -3.6997619587        5.0014596446
 H        -6.4066947580       -5.4287427205        0.3582803092
 H        -7.3090662269       -4.9523320342        1.6801588777
 H        -3.0530042731       -5.6121008857        2.6353636672
 H        -2.8925547102       -4.5897296853        1.3482378044
 H        -4.0774646062       -5.9811511059        1.3055235027
 H        -5.7633942563       -6.0636479285        2.8179820155
 H        -5.0696260824       -5.2560904177        4.3579655703
 H        -6.4766037711       -4.7056562274        3.6306722256
 H        -6.8013169406       -3.3629990116       -0.8089004403
 H        -8.5129220636       -4.1793014914       -0.3310718851
 H        -7.7396038357        1.3751375856        0.6278046046
 H        -6.8398043803       -0.0113875071        1.0409881608
 H       -11.0366222353       -1.7433561704       -0.0644384753
 H       -10.0126985264       -3.0030082818       -1.0081069556
 H       -10.1164755861       -1.3323302412       -1.5935728095
 H       -10.2867835332        0.2529013264        1.2908482537
 H       -10.1328038117       -1.2722699322        2.2018569574
 H        -8.6515805533       -0.2594293027        1.9710767904
 H        -5.7416571357        2.2210344064       -0.2681374709
 H        -6.4152780127        1.5238852434       -1.7468337678
 H        -3.1256608008       -2.2184307965       -3.6765765173
 H        -2.3255993223       -0.9684797062       -4.5398602203
 H        -5.1226261523       -1.6865523838       -3.6903774089
 H        -6.3014128775       -1.4594361418       -2.2235458294
 H        -4.6870975228       -2.2225660294       -1.9378302117
 H        -4.3796156949        0.4585607902       -4.4010210869
 H        -5.8817216152        0.7768332579       -3.6044894150
 H        -4.3912875830        1.7373483354       -3.3735340459
 H        -0.4709115094       -2.3297893605       -4.0762651057
 H        -0.4366339037       -1.0741952672       -2.8528726632
 H         1.4520630835       -5.6560145186       -3.5838374215
 H         2.9725344480       -5.2836517541       -2.7968400293
 H         1.8590395551       -6.2024214160       -1.8689264260
 H         0.6882609014       -2.5786186250        0.0005478981
 H         0.6585561346       -4.4055077505        0.3124640994
 H        -0.8480989465       -3.3690222116        0.5417422229
 H        -0.3589598346       -5.9953106623       -0.8780145599
 H        -1.8458051323       -5.2226245633       -1.2588631348
 H        -0.7755851218       -5.8263071731       -2.5959659353
 Na       -2.5488295918       -1.6489956818        0.2939840994
