155

 C         7.0787106922        7.6276460865       -5.9756931742
 C         8.2282494838        7.9114935906       -4.9856484017
 C         9.4987175631        6.8581968017       -4.8459502502
 C         9.2660552650        6.0093939784       -3.4506668643
 C         7.9657441954        5.1561969609       -3.4540712468
 C         9.7506696571        5.8936114081       -5.9385906839
 C        10.7330746082        7.7898168104       -4.6271742812
 O         8.0988618637        8.8585674891       -4.2772438778
 O        10.0237756006        6.0613743419       -2.5127382421
 C         7.8187625450        4.1468471031       -2.2930972091
 C         6.4119133643        3.8349007451       -1.9562662242
 C         6.1214548452        2.5018865507       -1.2158065691
 C         4.5369911015        2.2301936231       -1.1145498526
 C         3.7402269815        3.3132171478       -0.3728725158
 O         5.5536217181        4.7100722627       -2.1423663070
 O         3.9823375623        1.4442256389       -1.8544466857
 C         6.8911896979        1.3278907249       -1.8850637147
 C         6.7167114327        2.8026491049        0.2397871895
 C         2.1743713647        3.0183427740       -0.3168884247
 C         1.7791751302        2.1134653318        0.8376902956
 C         1.5550707532        0.6228422256        0.7936996770
 C         0.3091611085        0.2798816574        1.6902487470
 C         0.5864360307        0.2592144616        3.3362564475
 C         1.3100179700        0.1444955110       -0.6591009809
 C         2.9847729185       -0.1025572701        1.1586137470
 O         1.6903270623        2.6703726039        1.9261075679
 O        -0.7337601351       -0.1112980551        1.2027697757
 C        -0.2647125912       -0.7847619153        4.0335091134
 C        -0.7014231055       -0.2501492014        5.4145601764
 C        -1.3241451811       -1.2742299247        6.5282247465
 C        -2.3671377635       -2.2216663631        5.8352332364
 C        -3.6929393207       -1.5448753365        5.1912569692
 O        -0.8219448021        0.9174703746        5.6550984724
 O        -2.1148501219       -3.3690604427        5.6412975999
 C        -0.0669943795       -2.2213735615        6.8837816912
 C        -1.9446061150       -0.5781303302        7.7822799957
 C        -4.5311823839       -2.7017295712        4.5985469984
 C        -4.1457545445       -2.9862239406        3.0439751265
 C        -4.6875806416       -4.3517361861        2.3188714144
 C        -5.4824144848       -3.8458657585        1.0636630096
 C        -6.7206715940       -4.6542553391        0.6027809885
 C        -3.4789525933       -5.2039516389        1.8052391552
 C        -5.5277079554       -5.1622842918        3.3333684016
 O        -3.3763684562       -2.3112036927        2.5141884599
 O        -4.9809376759       -2.9295256243        0.4041897949
 C        -7.7728881290       -3.6972874515       -0.0030961568
 C        -8.0708505506       -2.4080244906        0.8218647445
 C        -9.1099358947       -1.4519511882        0.1725599151
 C        -8.1514343284       -0.4278554867       -0.7317253553
 C        -7.1879519301        0.4521754836        0.0563493062
 O        -7.3548453203       -2.1926026727        1.7717471604
 O        -8.1497171784       -0.4082881841       -1.9443672439
 C       -10.1214436411       -2.1490543661       -0.8773996110
 C        -9.8875698055       -0.5023015493        1.1149627956
 C        -6.2002712952        1.1005341093       -0.8761149901
 C        -4.8762463562        0.2989849616       -0.9867393963
 C        -4.3466003248       -0.2216219333       -2.3988173757
 C        -2.7534068368       -0.3917655386       -2.3858400985
 C        -2.0845081587       -1.2070500076       -3.5209246842
 C        -5.1847517249       -1.4946785641       -2.6355979825
 C        -4.6310793353        0.8545456401       -3.3743718354
 O        -4.3708569696       -0.0420919210        0.0339735461
 O        -2.0419887578        0.2123692662       -1.6218152525
 C        -0.9497636442       -2.1352080452       -3.0992751576
 C        -1.3040886590       -3.2076548317       -2.0568023699
 C        -0.1720301041       -4.2192831278       -1.5061876616
 C         1.3307580939       -4.2694709279       -2.1835458451
 C         1.6473262724       -5.4716808945       -3.0382131357
 O        -2.3755461279       -3.2858313196       -1.5525563477
 O         1.9571273296       -3.2348967005       -2.3119436037
 C         0.1407830799       -3.8080750975        0.0089561363
 C        -0.8547130634       -5.6412671175       -1.4850390261
 H         7.1694256379        6.6350019262       -6.3620666007
 H         6.2482904164        7.8829570632       -5.4157424188
 H         7.1137067891        8.1565148276       -6.9180055852
 H         7.2007227222        5.8994173975       -3.3062630677
 H         7.7692085272        4.7905481508       -4.4656148299
 H        10.7927049729        5.6514325012       -5.8908563369
 H         9.6093201729        6.3649056906       -6.9515981861
 H         9.1914364673        4.9641852871       -5.9764108124
 H        10.4763248883        8.3441592878       -3.7245697399
 H        11.7058534272        7.3062282947       -4.5995380450
 H        10.7352863292        8.5148401281       -5.4484413485
 H         8.2841802727        3.1633129379       -2.4515661347
 H         8.2491666791        4.4707909410       -1.3465889916
 H         4.2051421671        3.6175654760        0.6192638317
 H         3.9513303011        4.1277293068       -1.0708920494
 H         6.7406642800        0.4742075833       -1.3372564078
 H         7.9657638696        1.5563782202       -1.8008996515
 H         6.5997052216        1.2570410390       -2.9114401887
 H         6.7806201133        1.8675325214        0.7758727499
 H         7.6883890644        3.2373045128        0.2548641992
 H         6.0576219737        3.5364458891        0.7592344062
 H         1.8350910326        2.5404196063       -1.2365765188
 H         1.6857645756        3.8882428905       -0.0664815873
 H         1.6490522336        0.1311889348        3.5619559291
 H         0.3297304127        1.2113732855        3.6870514430
 H         0.2822082187        0.3563283737       -0.8394422091
 H         1.5964768210       -0.9412669164       -0.8501598640
 H         1.8018307668        0.5958960942       -1.5265281329
 H         3.2684302604        0.0054092645        2.2167793502
 H         2.8799622230       -1.1294699562        0.8826840737
 H         3.7701551308        0.2669383640        0.4475918215
 H        -1.2657725665       -0.8713807216        3.5468949227
 H         0.1624284029       -1.7795666697        3.8833511205
 H        -4.2341252323       -1.0160107969        5.9631265153
 H        -3.4143194417       -0.9032266140        4.4437043927
 H        -0.3443485734       -2.6597794971        7.7540305722
 H         0.9640817037       -1.7964643862        6.9216083438
 H        -0.0332514307       -2.9991163036        6.1638102414
 H        -1.3207972716       -0.8443051635        8.6221154837
 H        -1.9853272967        0.5032834722        7.6170636753
 H        -2.9133279918       -1.0739946961        8.0606981122
 H        -5.6179814542       -2.4154157689        4.6141027678
 H        -4.2992985957       -3.5634796701        5.1964660211
 H        -6.4705467153       -5.5289546839       -0.0200883507
 H        -7.1875090733       -5.1292417129        1.4830796296
 H        -2.7957956379       -5.5271107151        2.6629022234
 H        -2.8413533198       -4.6958405100        1.0451599167
 H        -3.9437440740       -6.0578627969        1.4087197650
 H        -6.0397656783       -5.9361691964        2.8866076444
 H        -4.8941609229       -5.5329229116        4.1155981146
 H        -6.3340631231       -4.5567894500        3.8588421466
 H        -7.2332056072       -3.3342077477       -0.8460494182
 H        -8.6480913649       -4.2667397527       -0.0767575931
 H        -7.7514916129        1.1884476352        0.6594846028
 H        -6.5953453554       -0.1135447186        0.7549941328
 H       -11.1233648752       -1.8604222170       -0.7107687168
 H       -10.0816717931       -3.2331053465       -0.7374607112
 H        -9.7060335673       -2.1273405619       -1.9137388304
 H       -10.2594947803        0.2299843076        0.4465248860
 H       -10.7509842103       -1.0816992405        1.4597818699
 H        -9.3519161175       -0.0223268117        1.9567967774
 H        -5.8537041334        2.0557036382       -0.4846224242
 H        -6.5643722605        1.3692344779       -1.8662683726
 H        -2.8690924650       -1.7523571700       -4.0979008583
 H        -1.8179713620       -0.4318426454       -4.2356402751
 H        -4.9082054406       -1.9310147102       -3.5171485033
 H        -6.1496439973       -1.1234702560       -2.6364437532
 H        -5.0950734660       -2.1912899864       -1.8029132655
 H        -4.0477786523        0.7931688206       -4.2593304735
 H        -5.6718353523        1.0222042070       -3.7229515161
 H        -4.2446034931        1.7843219781       -2.8901262285
 H        -0.4151817215       -2.6085226211       -3.8942507866
 H        -0.1178933621       -1.5951526621       -2.5397309686
 H         1.3584277550       -5.1307580157       -4.0572753827
 H         2.6654237379       -5.8287768961       -3.0987286455
 H         1.0917972624       -6.3428258876       -2.7097121709
 H         0.3500194169       -2.7651978314        0.0823537551
 H         1.0302865947       -4.3283229557        0.3954609866
 H        -0.7567860318       -4.0196349080        0.5990477651
 H        -0.0861309790       -6.3523610941       -1.1453350170
 H        -1.7993488071       -5.6709060186       -0.8954614435
 H        -1.0457599366       -5.8577554303       -2.5090402073
 Na       -2.6050802829       -1.4722619100        0.4740872106
