155

 C         7.2534441501        7.5333845349       -6.0411942860
 C         8.2520816164        7.9286349474       -4.9701987728
 C         9.4340356692        6.9639447439       -4.7542799809
 C         9.1906874311        6.2309493209       -3.3622971691
 C         7.7756166369        5.4902707406       -3.2853253451
 C         9.5639898493        6.0226655987       -6.0274196235
 C        10.6793666865        7.7662353633       -4.5898747590
 O         8.1312461068        8.8482600629       -4.1446519416
 O         9.9578625533        6.4047807136       -2.4294645513
 C         7.8878471970        4.2234684217       -2.4348450515
 C         6.4544122591        3.8456365885       -2.0363588753
 C         6.1717893363        2.6564424928       -1.1040930606
 C         4.5970742320        2.4407962651       -1.0811798270
 C         3.5661649526        3.4261999923       -0.3574856403
 O         5.5184378846        4.3882892420       -2.6267834420
 O         4.1881656839        1.3999114649       -1.5555535909
 C         6.7604440325        1.3165321571       -1.6285489393
 C         6.5624659203        2.7945231756        0.3530980901
 C         2.1471532113        3.0027104283       -0.3505155916
 C         1.7345537410        2.2452303528        0.9235784981
 C         1.5489493692        0.6072917935        0.9311870370
 C         0.3853413020        0.2450065554        1.8748463250
 C         0.5978144950        0.3831608207        3.3494418073
 C         1.1680252608        0.1181483037       -0.4320655994
 C         2.9301818210       -0.0100032524        1.4516662992
 O         1.6262600366        2.8530814042        1.9809142648
 O        -0.6560370133       -0.2124400225        1.3804440380
 C        -0.2100469460       -0.6997750060        4.0691693908
 C        -0.7885875945       -0.2441266814        5.3958131070
 C        -1.2388677631       -1.3781934258        6.3590234728
 C        -2.4130365650       -2.2746847688        5.7434460719
 C        -3.6095642861       -1.5132356371        5.1752792872
 O        -0.9437835872        0.9753993182        5.6479124320
 O        -2.3229024467       -3.5178239245        5.6952347104
 C        -0.1264225493       -2.2581110098        6.7785148623
 C        -1.7215588261       -0.6161389025        7.6043844085
 C        -4.6336693164       -2.4836078136        4.5796545367
 C        -4.1439622452       -2.9806765037        3.1786542924
 C        -4.6520015429       -4.2822333095        2.3848997689
 C        -5.4009983603       -3.8430671425        1.0473606013
 C        -6.6997875460       -4.5698236173        0.5852999091
 C        -3.3100741132       -5.0302742598        1.8730737315
 C        -5.4861250019       -5.2506163643        3.2486776542
 O        -3.1279489029       -2.4617034335        2.6029230891
 O        -4.8253735695       -3.0403733208        0.3774426745
 C        -7.9062351813       -3.7892989524       -0.0759185665
 C        -8.1230380033       -2.4569674733        0.6548383407
 C        -9.1761569175       -1.4560055602       -0.0761536975
 C        -8.1151102268       -0.5159837679       -0.8889460019
 C        -7.2525570415        0.4876392423       -0.1337694833
 O        -7.4743680157       -2.0129168629        1.5915335118
 O        -8.0117528535       -0.7062757472       -2.0461240260
 C       -10.1637087688       -2.1369452086       -1.0021561255
 C        -9.9662442037       -0.6918275882        1.0394690070
 C        -6.1427725293        1.1449283643       -0.9678761957
 C        -4.8198459284        0.3067488930       -1.0325070202
 C        -4.2081653815       -0.1867677827       -2.4042293338
 C        -2.6481447601       -0.4144505159       -2.2814566043
 C        -1.9277227962       -1.2531085038       -3.3376813198
 C        -4.9063834814       -1.4621977846       -2.9132506296
 C        -4.3279848675        0.9108286113       -3.5795721752
 O        -4.2611990316        0.0630703872        0.0473010190
 O        -2.0250050952        0.0873513242       -1.3592254553
 C        -0.7698293769       -2.2059276767       -2.8370794841
 C        -1.2388347596       -3.3470123532       -1.8583740745
 C        -0.2693944798       -4.4698776840       -1.4508252757
 C         1.0404431754       -4.3591086588       -2.3672177880
 C         1.3940436175       -5.4327764820       -3.5125814518
 O        -2.4097554560       -3.2481840656       -1.3959661132
 O         1.6301720057       -3.3190533570       -2.3351567583
 C         0.2568439772       -4.0391110015       -0.1147711653
 C        -0.8818341107       -5.8650451395       -1.3695163517
 H         7.1939318245        6.4511231029       -6.2233214389
 H         6.2463811155        7.9396593228       -5.6586167025
 H         7.4800747050        7.9380590882       -7.0095599364
 H         7.0097269105        6.2705464313       -3.0263415524
 H         7.5453132660        5.2144234549       -4.3359827717
 H        10.4731006305        5.3587720341       -6.0965453554
 H         9.5741191862        6.6178335091       -6.9189488789
 H         8.7053522227        5.3503761948       -6.1642360623
 H        10.6779650155        8.4908262025       -3.7767945254
 H        11.4188695493        6.9814993225       -4.3755224781
 H        10.9763706606        8.1560450113       -5.5474456591
 H         8.3157795696        3.4735455199       -3.1008843322
 H         8.5444506595        4.3462923417       -1.5506546192
 H         3.9610823554        3.7222493442        0.5593865168
 H         3.4885546010        4.2932662520       -1.0308366403
 H         6.1525151266        0.5782048536       -1.0224057784
 H         7.8259523160        1.1650210292       -1.4277834624
 H         6.6218606292        1.2991427784       -2.7356332975
 H         6.1614706615        1.9232871476        0.9129999189
 H         7.6714163615        2.7373113087        0.4208686038
 H         6.2029684701        3.6797137172        0.8941049309
 H         1.9957721210        2.3256630098       -1.1858094668
 H         1.5641114429        3.9963924746       -0.3589509152
 H         1.6748515640        0.5327269612        3.3864723647
 H         0.1448874266        1.3933526856        3.7089231130
 H         0.5898343863        0.9010992626       -1.0002668826
 H         0.6718881219       -0.8382759645       -0.4175600484
 H         1.9808249246       -0.2121463212       -1.1047203155
 H         3.4198982128        0.7782795317        2.0456430221
 H         2.6583635713       -0.8642429456        2.1455136435
 H         3.6427809078       -0.3231380623        0.6937683788
 H        -1.0051384093       -0.8550939206        3.2959923070
 H         0.3079091204       -1.6819047819        4.0861240926
 H        -3.9503609520       -0.8614561837        5.9857286568
 H        -3.1735754418       -0.8672170612        4.3310317761
 H        -0.4642798473       -2.9288105028        7.6256668377
 H         0.5945027913       -1.5750613333        7.2306838693
 H         0.2931695021       -2.8688475505        5.9810809384
 H        -0.9084315346       -0.2924999505        8.2715374692
 H        -2.3679120260        0.1698247772        7.2555640692
 H        -2.2455522523       -1.3459784108        8.1458582057
 H        -5.6107548370       -2.0572601994        4.5044453986
 H        -4.5874513671       -3.3882545595        5.2467496239
 H        -6.3021649142       -5.1967874730       -0.2143213964
 H        -7.0599213653       -5.2825508496        1.3135256039
 H        -2.7904683616       -5.2628582563        2.7745665849
 H        -2.6784009577       -4.3190548400        1.3258638125
 H        -3.4578837496       -5.9850096401        1.2380358047
 H        -5.4216019874       -6.3282231394        2.8427559191
 H        -5.0354010963       -5.3178809523        4.2556250126
 H        -6.5068793142       -5.0075199452        3.3499602236
 H        -7.5258741890       -3.5668453586       -1.1040137331
 H        -8.7420143625       -4.4653260883        0.2244671964
 H        -7.9627080728        1.3029515154        0.1120441787
 H        -6.9184923100        0.0337643322        0.8551150467
 H       -10.4038394030       -1.3403669086       -1.7484992753
 H       -11.1503571194       -2.3752543336       -0.6377438634
 H        -9.8678350391       -3.0560414281       -1.4461863506
 H       -10.4430686164        0.2723292827        0.7223725409
 H       -10.5692000160       -1.3903803483        1.5808760665
 H        -9.1694332924       -0.3995794242        1.7424577710
 H        -5.8389708590        2.1218227279       -0.6516683113
 H        -6.5506911446        1.3016883312       -1.9524638101
 H        -2.5895837546       -1.7942070619       -3.9816114623
 H        -1.5396565243       -0.4982024755       -4.0635403281
 H        -4.4112838587       -1.8090901868       -3.8890536826
 H        -6.0115021739       -1.1984669356       -2.8765966419
 H        -4.6869159220       -2.2635894239       -2.2131735612
 H        -4.1176172863        0.4898482372       -4.6067453954
 H        -5.4159516409        0.9948103297       -3.5889709486
 H        -4.0158044377        1.9394679586       -3.4860404064
 H        -0.4048139269       -2.7368430326       -3.7535149064
 H         0.0844201703       -1.7796663445       -2.4116763880
 H         0.9849410939       -4.9494881968       -4.3702236294
 H         2.4653074361       -5.5173035224       -3.7097743280
 H         1.0991104467       -6.4452848119       -3.3829980122
 H         0.9174334956       -3.1518068515       -0.2727594630
 H         1.0202255509       -4.7380939702        0.2039740503
 H        -0.4801427194       -3.9077871263        0.6762445342
 H        -0.1682963623       -6.5291175335       -0.8619769090
 H        -1.7835961825       -5.7041862388       -0.8008469252
 H        -1.1411580060       -6.3056495952       -2.3617274128
 Na       -2.6822766139       -1.4584997034        0.5121347553
