155

 C         7.3580731722        8.0330821338       -6.3435733830
 C         8.1432777299        8.2378184482       -5.0015749005
 C         9.2884735864        7.2069527356       -4.5884479329
 C         8.7796238706        6.4677927608       -3.3173944919
 C         7.3362096589        5.8299881006       -3.1766863779
 C         9.5562192073        6.1609026339       -5.6548957900
 C        10.6981177494        7.8392123520       -4.2605561997
 O         7.8778816094        9.1864074836       -4.2356154057
 O         9.5223098776        6.1578142135       -2.4308821703
 C         7.3243316498        4.9211592242       -1.9772299835
 C         6.2486754644        3.7833167736       -2.0869938866
 C         6.0514082739        2.8935134801       -0.8258219952
 C         4.5039308805        2.3868782802       -0.6743122266
 C         3.4752309356        3.3926390437       -0.4116229812
 O         5.6637768098        3.7107000441       -3.1049978741
 O         4.2459630672        1.2104650162       -0.7910495424
 C         6.9899686813        1.7021069063       -1.1356266359
 C         6.3486124561        3.5537971648        0.5140291594
 C         1.9941751105        2.9514309037       -0.3424616552
 C         1.6709916226        2.2083711354        0.9791176628
 C         1.4026791614        0.5568769753        1.0974619086
 C         0.1835566638        0.0057145220        1.8258454960
 C        -0.2208935161        0.5112380386        3.2058271486
 C         1.4020828913       -0.0046145082       -0.3304030587
 C         2.6771988150       -0.0192660715        1.7986931438
 O         1.5050649451        2.7814071185        2.0026816369
 O        -0.5460503480       -0.8540191556        1.2841035944
 C        -0.1928065375       -0.6078263785        4.2452611756
 C        -1.0905236664       -0.3348274189        5.5256758913
 C        -1.4099550058       -1.5156737483        6.4601577831
 C        -2.5705506901       -2.1714230508        5.5945867276
 C        -3.7669516503       -1.3531402290        5.1830470544
 O        -1.5946509573        0.7801009515        5.6256334400
 O        -2.5344790368       -3.3564412471        5.3018879656
 C        -0.1901585971       -2.4496826483        6.6264659558
 C        -1.8696574692       -1.0136251883        7.8697609760
 C        -4.7165614896       -2.1400158213        4.3639114237
 C        -3.9274691623       -2.7831798879        3.2597598326
 C        -4.2933780121       -4.1311150861        2.4896217325
 C        -4.9984130504       -3.6646234392        1.2219367026
 C        -6.1941797821       -4.4313402092        0.6296101691
 C        -2.9085425605       -4.8314410021        2.0349560489
 C        -5.0422686599       -5.1816700644        3.3312182552
 O        -2.9149889241       -2.2553834329        2.9082468287
 O        -4.6847446988       -2.5347992583        0.7036983705
 C        -7.1869363111       -3.6102386216       -0.2673583037
 C        -7.8983201502       -2.3847428698        0.5656591189
 C        -8.9130277782       -1.5124502451       -0.3317363824
 C        -7.9904623936       -0.6398521343       -1.4105098017
 C        -7.3772171643        0.7522467243       -0.8503005222
 O        -7.7863558748       -2.1990048027        1.7411079169
 O        -7.6380586620       -1.1137130569       -2.5067096235
 C        -9.7923701766       -2.5066749741       -1.0423397966
 C        -9.6425493987       -0.5219494613        0.6350027940
 C        -6.1056037833        1.2350643669       -1.6253568768
 C        -4.9126114186        0.2333835206       -1.3168275975
 C        -3.9899762094       -0.2281158413       -2.5789422174
 C        -2.4831108013       -0.5645894676       -2.2679027634
 C        -1.5930038268       -1.3946244487       -3.2439553523
 C        -4.7740635892       -1.3194363057       -3.3297076494
 C        -3.7950669589        1.1312003992       -3.4748159966
 O        -4.6702551320       -0.0527150337       -0.1504942381
 O        -2.0037561045        0.0094026637       -1.2713112928
 C        -0.5118040061       -2.2216462519       -2.5371744673
 C        -0.9993665059       -3.4024385993       -1.6773132458
 C        -0.1558523847       -4.8291785643       -1.5616064952
 C         0.8599545422       -4.8739525233       -2.7698982001
 C         0.4517875480       -5.3972070322       -4.1224716599
 O        -1.8662553231       -3.1334184023       -0.8589794787
 O         2.0455875616       -4.6483705884       -2.5464544873
 C         0.6893117516       -4.7810593384       -0.2944811676
 C        -1.2393854967       -5.9451428088       -1.4864269990
 H         6.8264375343        9.0199996672       -6.5191694171
 H         7.9957093164        7.7639119665       -7.2370752511
 H         6.7971994649        7.0684191638       -6.3560540014
 H         6.6860678838        6.7139613979       -2.9107790943
 H         6.9505119102        5.3014899717       -4.0745610006
 H        10.3361879028        5.5051692457       -5.3721273170
 H         9.9011200219        6.5918298449       -6.6102798586
 H         8.6627479805        5.5128122020       -5.8557129121
 H        10.6552565210        8.3977076587       -3.3321717308
 H        11.4861953405        7.1222931941       -4.1721910493
 H        10.9201778025        8.5286702607       -5.1110202875
 H         8.3468859966        4.4689064397       -1.9846671007
 H         7.1582624229        5.6329362009       -1.1417485310
 H         3.7468370074        3.8555515643        0.5768461937
 H         3.6838965387        4.0709365317       -1.2175385923
 H         6.9010443625        0.8968504853       -0.3013985293
 H         7.9931685672        2.0541558036       -1.2500444557
 H         6.6664657382        1.2799365276       -2.1191698941
 H         5.8027921187        2.9789045988        1.3605031458
 H         7.3708873556        3.5968243507        0.9418437757
 H         5.8910149220        4.5083557505        0.6989939182
 H         1.6775367702        2.3668159428       -1.2348457457
 H         1.3503362528        3.8315095992       -0.3104323508
 H         0.4224003895        1.3211889331        3.5855132331
 H        -1.1548167751        1.0916511123        3.3862231547
 H         0.9186036982        0.6324583923       -1.0512060259
 H         0.7028572372       -0.7475050054       -0.3909584588
 H         2.2346085856       -0.4067550403       -0.8353501026
 H         2.9156605750        0.3005497640        2.8238611060
 H         2.5454900420       -1.1128854609        1.9145162433
 H         3.5590969521        0.2637231190        1.1830803101
 H        -0.4666623360       -1.5891967545        3.8173495684
 H         0.8330216058       -0.6984261962        4.6354493982
 H        -4.2020198480       -0.7815213505        6.0565488074
 H        -3.2758780674       -0.5132131864        4.5637301370
 H        -0.3846707630       -3.1455718521        7.5431676560
 H         0.6750510621       -1.8972641243        6.9081132670
 H        -0.1567537976       -3.1453492101        5.7183999394
 H        -2.9056968852       -0.8160383822        7.8714235309
 H        -1.4331006871       -1.5775551767        8.6957776819
 H        -1.3525798738       -0.0790402553        7.9750348672
 H        -5.5230141575       -1.4484805142        4.0161709950
 H        -5.2840399631       -2.8766716807        4.9721148574
 H        -5.8961825381       -5.3554649409        0.1182350047
 H        -6.8328080897       -4.6926124651        1.5524418163
 H        -2.3566938580       -5.0948168231        2.9146278241
 H        -2.3914245528       -4.3663062890        1.2009364334
 H        -3.2157325480       -5.7967153265        1.6404238674
 H        -5.2470632396       -6.1235012819        2.7443417103
 H        -4.2342973997       -5.4928921030        4.0762013230
 H        -5.9098128166       -4.8672127014        3.8906219180
 H        -6.6092500152       -3.2266165402       -1.0913411511
 H        -8.0098356699       -4.2789364228       -0.5390008980
 H        -8.1503568262        1.5039199952       -0.9805792329
 H        -7.0819944531        0.7046341720        0.1905801839
 H       -10.6517139323       -2.6161351294       -0.3614532595
 H        -9.4171683372       -3.4914848258       -1.3254418639
 H       -10.3382503603       -2.2282444605       -1.9413067741
 H       -10.0585709631        0.3593869881        0.0614302616
 H       -10.5513040418       -1.0033990669        1.1088743969
 H        -9.0083841386       -0.1206570007        1.3964337140
 H        -5.8185657644        2.2552824180       -1.1473841618
 H        -6.1479967262        1.3445793195       -2.7530794287
 H        -2.2060754084       -2.0158088987       -3.9396000512
 H        -1.1004257058       -0.6603202298       -3.8565774938
 H        -4.1536232117       -1.8533331846       -4.1286572888
 H        -5.6312092906       -0.8321759885       -3.8955612820
 H        -5.0090504423       -2.0875483574       -2.5442519759
 H        -3.0977889075        0.7472640176       -4.1902409910
 H        -4.6187172440        1.5233775104       -4.0889151300
 H        -3.4200706034        2.0570463615       -3.0132970711
 H         0.2245023685       -2.5400770006       -3.2233404048
 H        -0.0234782009       -1.5793348702       -1.7262860170
 H        -0.6126719080       -5.3333955001       -4.2982400152
 H         1.0404772564       -4.9520521155       -4.8844073968
 H         0.6673707815       -6.4906322967       -3.9760452500
 H         1.3476720331       -3.9031728005       -0.3971209290
 H         1.2703624135       -5.7249391318       -0.0726516183
 H         0.1498894851       -4.5520303077        0.6303366712
 H        -0.8757672266       -6.9291252530       -1.6366722545
 H        -1.7607211596       -5.9258060326       -0.5108187125
 H        -1.9241136011       -5.6465986475       -2.3148597353
 Na       -2.8241316527       -1.3066097979        0.7171612155
