155

 C         7.9991325470        8.9412828905       -6.4311324979
 C         7.8607274030        8.3224315480       -4.9857889157
 C         8.8103372961        7.2769867323       -4.3886353531
 C         8.2314500686        6.5691742763       -3.0969699126
 C         6.8796839567        6.0059000463       -3.1133684728
 C         9.0867880186        6.2390198413       -5.4405576041
 C        10.0736962344        8.0744679244       -4.0005114202
 O         7.0088702112        8.8473990671       -4.2643533708
 O         8.9585256908        6.2043363984       -2.1968944834
 C         6.3406890764        5.8170122978       -1.6934886573
 C         5.6608332887        4.4057725728       -1.4157812199
 C         5.6852905217        3.6526958742       -0.0207634009
 C         4.5413787947        2.5243994094       -0.0842346977
 C         3.1219464205        2.9910556554       -0.5486163122
 O         5.1698208525        3.8409284591       -2.3334027581
 O         4.7521354560        1.3989633069        0.3785024246
 C         7.0541324812        3.0421211109        0.1645490805
 C         5.3731847170        4.5329940379        1.2332841391
 C         2.0770961188        1.9482194821       -0.0474247484
 C         1.9521830613        1.6321832694        1.3839579701
 C         1.8079135403        0.1404298305        1.8145051942
 C         0.2852950231       -0.0861682014        1.6694053379
 C        -0.6391574415        0.4187179538        2.9039681714
 C         2.4505126460       -0.8361743720        0.8009258109
 C         2.5299176044        0.0085914013        3.2227898563
 O         2.0120762895        2.3752849616        2.3468651722
 O        -0.2363947403       -0.4961121987        0.6580212661
 C        -0.6245459299       -0.8505905454        3.8816799952
 C        -1.1695102024       -0.2998809564        5.1959519989
 C        -1.5827694431       -1.2920261750        6.3643695677
 C        -2.6883850017       -2.1976670569        5.7470706063
 C        -4.0051597644       -1.3829920126        5.3809854365
 O        -1.4297788417        0.9233018417        5.3085469841
 O        -2.5686323286       -3.3872363890        5.4451301107
 C        -0.3592095332       -2.0287873401        6.9183915105
 C        -2.0571336214       -0.4411787602        7.5343547247
 C        -4.9354099963       -2.2452723444        4.5528722359
 C        -4.3981347110       -2.4354818777        3.1678079569
 C        -4.0564152369       -3.8563110265        2.5284070911
 C        -4.8527681934       -3.7275143415        1.1879496812
 C        -6.1552468109       -4.4708513857        0.9829483625
 C        -2.5334007890       -3.9195382828        2.2189646441
 C        -4.5308192195       -4.9935786349        3.4066115664
 O        -4.2121517133       -1.4607283421        2.3624406547
 O        -4.4341095633       -3.0669634430        0.2618631344
 C        -7.0892544214       -3.8641165780       -0.0613325313
 C        -7.7629010212       -2.4651171032        0.5029785663
 C        -8.5084859025       -1.5740794302       -0.4940740229
 C        -7.2825199526       -1.0162994895       -1.3988222039
 C        -6.6488333109        0.4097929542       -1.1230496676
 O        -7.4261829158       -2.1060740571        1.5950103609
 O        -6.8674576793       -1.6549676959       -2.3086900936
 C        -9.5499633710       -2.3821455758       -1.3561318501
 C        -9.2282180650       -0.4470631728        0.2415788122
 C        -5.7508329343        0.7889936797       -2.2237523913
 C        -4.4260490911        0.0905142336       -2.0916802605
 C        -3.4498735377        0.0453898589       -3.3803498833
 C        -2.0617359910       -0.6088535553       -2.8223694590
 C        -1.8202324296       -2.0696757759       -3.1849451645
 C        -4.0992796780       -0.9462319144       -4.3921102673
 C        -3.2068791195        1.3464118831       -4.1085541388
 O        -4.1294531705       -0.3270157673       -0.9921656480
 O        -1.3521748334        0.0441432188       -2.1010470256
 C        -0.5012794992       -2.6850945717       -2.6426228935
 C        -0.7582134734       -3.7468712952       -1.5640633409
 C        -0.2850706133       -5.1952327972       -1.6881028250
 C         0.1243278208       -5.5155638618       -3.2740653871
 C        -0.9336704003       -5.5599115031       -4.3876781297
 O        -1.3893468933       -3.4395286821       -0.5687452083
 O         1.3194180318       -5.5323830289       -3.5566211720
 C         1.0258337803       -5.3836703620       -0.8475301111
 C        -1.3394705964       -6.1327113333       -1.1512258971
 H         9.0596428458        9.3375514233       -6.6312706803
 H         7.6839351016        8.2699331280       -7.2817043108
 H         7.3928048496        9.8929622934       -6.3052771877
 H         6.2020103349        6.6529715785       -3.6080533478
 H         6.8924138302        5.0891748031       -3.7803063905
 H         9.1210773775        5.2403158605       -4.9891683219
 H        10.1413329162        6.4790708665       -5.8147079641
 H         8.4206783942        6.2488840967       -6.2817164914
 H         9.7724766853        8.8908228358       -3.3238944614
 H        10.7931594972        7.4973168923       -3.4183768252
 H        10.5694162860        8.4579150497       -4.8900850147
 H         7.0947039132        5.9952203999       -0.8789264627
 H         5.6115399673        6.6368040460       -1.4996329150
 H         2.9965697278        3.9919122141       -0.1126479032
 H         3.0635199387        3.1450166073       -1.6609223806
 H         7.1925709394        2.4060331894        1.0874434974
 H         7.7736817309        3.8715094993        0.2450707349
 H         7.3982681826        2.5086848475       -0.7640729065
 H         5.4136475537        4.0239334471        2.2008011942
 H         5.9666772080        5.4617750796        1.3640094680
 H         4.3153714731        4.9148519185        1.3088485512
 H         2.2659687134        1.0341183668       -0.6337763332
 H         1.0568512134        2.2324742785       -0.2604878736
 H        -0.0803766518        1.2056004502        3.4104539680
 H        -1.6390113124        0.7103296269        2.5344882298
 H         1.9415814130       -0.8369274733       -0.1436620014
 H         2.6621865755       -1.7633780219        1.1238501220
 H         3.4013959255       -0.4080556664        0.5446385861
 H         1.9043521098        0.3699482197        4.0726118430
 H         2.9876458677       -0.9447215750        3.4530819080
 H         3.3037825597        0.8466103054        3.3179046514
 H        -1.2435089621       -1.6636854774        3.4979689410
 H         0.4183945065       -1.2748934553        3.9771257835
 H        -4.5134941564       -1.0692211245        6.3150367671
 H        -3.7176131732       -0.5153196517        4.8321860756
 H        -0.8460568105       -2.8864932584        7.5217294828
 H         0.2988636989       -1.4253356948        7.4974478173
 H         0.2966967595       -2.5248394047        6.1048506322
 H        -1.5273986249        0.4761299882        7.4700298927
 H        -3.0710480033       -0.0646433203        7.5532393318
 H        -1.8828875504       -1.0093503971        8.4593452441
 H        -5.9634649870       -1.7269853015        4.5738468031
 H        -5.0476472115       -3.2253646631        5.0425719539
 H        -6.0812699137       -5.6204447257        0.9732783971
 H        -6.7077695392       -4.3285633648        1.9100794099
 H        -2.0640698340       -4.0407216021        3.2478264172
 H        -2.0713608051       -2.9900185656        1.8167868120
 H        -2.2703532738       -4.7319671692        1.6018220477
 H        -4.5384609355       -5.9659118196        2.9860022204
 H        -3.7526416854       -5.0394363849        4.2120443262
 H        -5.5562698549       -4.7175138034        3.7936905739
 H        -6.5457559173       -3.4178272012       -0.8943765997
 H        -7.6760203634       -4.5296317892       -0.6402363497
 H        -7.4725170727        1.1074555684       -1.1872220928
 H        -6.3147345841        0.4161307626       -0.0951161746
 H       -10.1194975201       -1.6700863667       -1.9964047224
 H       -10.2043091706       -2.9794250433       -0.7316057937
 H        -9.0791279474       -2.9837606013       -2.1645598769
 H        -9.6221322376        0.2034469191       -0.5123180618
 H       -10.0012219663       -0.6746587021        0.9967324355
 H        -8.5415736015        0.2575982938        0.7440959378
 H        -5.4175744356        1.9144242551       -2.2121082350
 H        -6.2689575278        0.6012909838       -3.2299290891
 H        -2.5592021234       -2.6357581985       -2.6668940546
 H        -1.9522782299       -2.2667688783       -4.2757719447
 H        -3.6046688906       -0.9942496330       -5.3789989392
 H        -5.1993576784       -0.7019036138       -4.5050276608
 H        -4.1587090206       -2.0625952035       -4.1693726782
 H        -2.6076679000        1.3585716949       -5.0089525691
 H        -4.1797858020        1.8360297181       -4.3549747257
 H        -2.6855541873        2.0397943335       -3.3979913321
 H         0.1250807822       -3.1504229991       -3.4700597464
 H         0.0900799399       -1.8461938204       -2.2883632053
 H        -1.9604220609       -5.2744271228       -4.0167646576
 H        -0.5933500223       -5.0127955700       -5.2377715614
 H        -1.0022693528       -6.6220638474       -4.6748328150
 H         1.7819764403       -4.6666229895       -1.0266908604
 H         1.6162611565       -6.3217488136       -0.9335455818
 H         0.7931799789       -5.4246162248        0.2157501335
 H        -0.9028430609       -7.1434728337       -1.1243113637
 H        -1.9133701782       -5.8299480417       -0.2473211190
 H        -2.1559269674       -6.2228360440       -1.8567143657
 Na       -2.5868423878       -1.3769148343        0.2981144216
