155

 C         7.7596048108       10.0724052494       -3.9818538345
 C         7.3317213523        8.8168201393       -4.6039139538
 C         8.0952650550        7.3999630825       -4.2118576267
 C         7.7585158769        7.1060008956       -2.7379072132
 C         6.6553111906        6.0294299111       -2.4070103029
 C         7.6143719336        6.2670637552       -5.1244243820
 C         9.6027406259        7.5557384681       -4.2942446229
 O         6.3459307492        8.7509539781       -5.2832112133
 O         8.0040976257        7.9568733103       -1.9298301847
 C         5.9737485076        6.3469800025       -1.0858211838
 C         4.9224238912        5.2649809786       -0.6934037043
 C         4.3951903316        5.0483227488        0.7709291274
 C         4.3243414959        3.3859653806        0.9266045568
 C         3.5094232257        2.4109892277        0.0489266353
 O         4.5940634972        4.4613182878       -1.5773391859
 O         5.1403662031        2.8383498856        1.6306914571
 C         5.4132794616        5.6524552121        1.8170616783
 C         2.9686981326        5.6560955149        0.8114238525
 C         3.4280182735        0.9248701054        0.6449867905
 C         2.0372584789        0.4881533266        0.9452970940
 C         1.9089196234       -0.8838490523        1.7424530892
 C         0.4940545346       -1.2700854894        2.1025915156
 C        -0.3876409157       -0.2417916652        2.8646739195
 C         2.7075552738       -2.1071315156        1.0774252014
 C         2.6084844471       -0.6168140646        3.0983250578
 O         1.0626341520        1.1443552009        0.6382816483
 O         0.1040570150       -2.3816636915        1.8450373706
 C        -0.7486204857       -0.6789769201        4.3254607304
 C        -1.4237705323        0.3349299736        5.2404025314
 C        -2.5192057798       -0.1992261957        6.1900946295
 C        -3.5714391803       -0.9883292605        5.2877821477
 C        -4.6366922018       -0.3901940612        4.4271798108
 O        -1.1836369996        1.4734688119        5.1699676233
 O        -3.3899798765       -2.1861782079        5.2015003372
 C        -1.7658480072       -1.2065874298        7.1717829165
 C        -3.2399435093        0.9413786894        6.9253441116
 C        -5.2021513257       -1.3111928290        3.3430026857
 C        -4.1869400335       -2.2248006253        2.6500033562
 C        -4.3278234482       -3.8397627462        2.4806305262
 C        -4.4733745030       -4.1599235994        1.0020998182
 C        -5.7563217666       -4.6289710743        0.2826314754
 C        -3.0253751933       -4.5729170609        2.9064395036
 C        -5.4769076644       -4.3563753853        3.3505469107
 O        -3.2786205753       -1.6783224969        2.1143407007
 O        -3.4889257300       -4.1603049336        0.2456413440
 C        -6.5174636707       -3.8146972784       -0.7555697063
 C        -7.2359514148       -2.6005233844       -0.1241570947
 C        -7.9184316364       -1.5988945321       -1.2005139285
 C        -6.6661631742       -0.7819728196       -1.8663660608
 C        -5.8328996961        0.2258487400       -1.0348244282
 O        -7.1473712570       -2.3553352578        1.0826950290
 O        -6.3443885619       -0.9503271457       -3.0734026178
 C        -8.7470647741       -2.2681108859       -2.3748386576
 C        -8.6749474617       -0.5158512623       -0.6107503378
 C        -4.5050526890        0.6389864387       -1.7958886674
 C        -3.3474630024       -0.3174031174       -1.7777635516
 C        -2.2888658336       -0.1778820029       -2.9169652039
 C        -1.1784472331       -1.1743040140       -2.4457499129
 C        -0.4677460439       -2.1018650226       -3.5373036815
 C        -2.9199441833       -0.4971089357       -4.2880611048
 C        -1.7509589509        1.2381944205       -2.7997317091
 O        -3.2243696078       -1.1416530174       -0.8723480912
 O        -0.7422900455       -1.1680354196       -1.3085964252
 C         0.5494166891       -3.1404532485       -3.0403634980
 C         0.0755936842       -4.2391758972       -2.1111149923
 C         0.1687080595       -5.7604185519       -2.7192405018
 C        -1.3989499676       -5.9474308449       -3.1841653264
 C        -1.9255851241       -7.3496897831       -3.1561571570
 O        -0.4446981320       -3.9822935339       -1.0800596242
 O        -2.0456619984       -4.9929858664       -3.5555082333
 C         1.1431560351       -6.0948614362       -3.8982428115
 C         0.4933134046       -6.6719630586       -1.4867682407
 H         7.9114587269        9.9972400254       -2.9235469127
 H         8.6568979272       10.3766890895       -4.4822631738
 H         7.0489731722       10.7747950437       -4.2535588500
 H         5.8728694258        6.0020447246       -3.1814979142
 H         7.1313482301        5.0945697546       -2.2812421118
 H         7.8927907270        5.2182085409       -4.8966225168
 H         8.1745790240        6.4972443166       -6.0498647271
 H         6.5771550442        6.3356431488       -5.2695984408
 H        10.0492818881        8.2879889835       -3.6291164162
 H        10.1160683674        6.6589554285       -3.9434983352
 H         9.9654737000        7.6856464196       -5.2711116111
 H         6.7247620075        6.4356697111       -0.2960722295
 H         5.4349750430        7.2577487371       -1.2398170340
 H         2.5185431659        2.6696428253       -0.1513500475
 H         3.9750610086        2.4563768826       -0.9632394447
 H         5.5943981692        4.9588438489        2.6690542519
 H         5.0306788795        6.5326936428        2.1871030185
 H         6.3145108706        5.9454708727        1.3652872216
 H         2.3377349983        5.2863919737        1.6147250328
 H         3.2173501814        6.6862620351        1.0356194777
 H         2.4422882694        5.4712884739       -0.0994318339
 H         4.0257726671        0.6924076035        1.5307075485
 H         3.8046280454        0.1634626661       -0.1035859920
 H         0.2613535441        0.7033081752        3.0307420818
 H        -1.2204896799        0.1533140180        2.2703603117
 H         2.6520777187       -2.8721026826        1.8996237161
 H         3.7025050250       -1.6378697774        0.9298981802
 H         2.2405215632       -2.3399752346        0.1611118813
 H         2.0961067502        0.2033425600        3.5728015629
 H         2.5316476125       -1.5032090687        3.6738511740
 H         3.6437613607       -0.2039802146        3.0889003028
 H        -1.4605912167       -1.5425232009        4.1869972969
 H         0.1445437097       -1.1176850856        4.8084459941
 H        -5.5898103544       -0.1038206100        5.0201224759
 H        -4.3104033858        0.6153101982        4.0316722207
 H        -2.4249420406       -1.8444206502        7.7587590445
 H        -1.0818845155       -0.6289336605        7.8233620680
 H        -1.1918183397       -1.8602681449        6.5846698680
 H        -2.4749743029        1.6151973129        7.2172450533
 H        -3.7840270967        1.5781223857        6.2697689830
 H        -3.8250881884        0.5743262469        7.7748932574
 H        -5.9246871588       -0.8537708205        2.5520893627
 H        -5.9616076955       -1.8961368127        3.8990946611
 H        -5.5584755015       -5.7639180863        0.0070609693
 H        -6.4167799512       -4.7645057622        1.1362273515
 H        -2.7189849375       -4.4107483659        3.9586559673
 H        -2.1479750642       -4.3262793089        2.3196660434
 H        -3.1600904340       -5.6013852683        2.7665794890
 H        -5.6313865860       -5.3778649514        3.1779962413
 H        -5.2093130625       -4.2829482662        4.4263309612
 H        -6.5008254072       -4.0071812905        3.1843554731
 H        -5.8063778725       -3.3941948146       -1.4326392091
 H        -7.2295123244       -4.4504368807       -1.2654678961
 H        -6.4525912860        1.0863079220       -1.0098080889
 H        -5.6351343669       -0.2033478787       -0.0337016428
 H        -8.2162280677       -2.1134598897       -3.3290813333
 H        -9.6819009793       -1.7104872647       -2.3300170068
 H        -8.8880673514       -3.3122054431       -2.1601787531
 H        -8.9842942018        0.2825734351       -1.2512089048
 H        -9.5375592168       -0.8534167685        0.0235741023
 H        -7.9810782518       -0.0231150296        0.0937553331
 H        -4.1740768672        1.5507638321       -1.1580044167
 H        -4.6361951875        0.8836092826       -2.8894253829
 H        -1.2638182182       -2.7223655602       -3.9718529157
 H        -0.0838008152       -1.4260143721       -4.2928620663
 H        -2.1730774039       -0.3341311811       -5.0644175022
 H        -3.7163358280        0.1251039117       -4.6283204243
 H        -3.1410430026       -1.5007443749       -4.3591892963
 H        -1.2517528196        1.5973385786       -3.6587156045
 H        -2.6600443376        1.7985978635       -2.5669317156
 H        -1.0594462414        1.1846326520       -1.9390205070
 H         0.8739973968       -3.6765402276       -4.0041457432
 H         1.3463057543       -2.6623240450       -2.4834015442
 H        -1.7608519168       -7.8749311247       -2.1752361235
 H        -2.9904964202       -7.4783331158       -3.3959487426
 H        -1.3119469023       -8.0614869023       -3.7486556924
 H         0.8460359693       -5.6795235990       -4.8600910121
 H         1.3605203619       -7.1881216365       -4.0586782527
 H         2.1758061883       -5.7724973619       -3.6425289385
 H         0.5786258572       -7.6915906233       -1.8146869960
 H         1.5126339203       -6.4794817848       -1.0956899326
 H        -0.2301034338       -6.4768617737       -0.7209126671
 Na       -1.7625542851       -2.4458227401        0.3345458805
