155

 C         6.5692280354       10.7445067070       -3.2253471937
 C         6.1653809980        9.2461380245       -3.1676118323
 C         7.2684273732        8.0548490926       -2.9464396238
 C         6.7686943700        6.9414394573       -1.8442921758
 C         5.3351321822        6.5744814681       -1.7406452318
 C         7.4168952173        7.3890885151       -4.2863946723
 C         8.6245947817        8.7543522221       -2.5162994850
 O         4.9736292684        8.9405285899       -3.2267730122
 O         7.6228200482        6.5061252418       -1.0941029211
 C         5.2281359452        5.2775855345       -0.7404390197
 C         3.7353439490        4.9393861255       -0.8064034459
 C         2.6969594851        5.1670133150        0.3739328099
 C         3.0367242550        3.9960544996        1.4580791998
 C         3.2508421020        2.5429535530        0.9031347696
 O         3.2460587887        4.4050017841       -1.7732214022
 O         3.1252518397        4.1859494778        2.6342746085
 C         2.8577211015        6.4529484103        1.0362360562
 C         1.2831310056        5.2230756486       -0.3991001807
 C         3.3074976638        1.4574679778        2.0640818977
 C         2.9617356120        0.0120037879        1.4890954324
 C         2.4992446341       -1.1600655274        2.4052079475
 C         0.9788432374       -1.2850564476        2.0515792472
 C         0.2242944609        0.0621040924        2.0830829215
 C         3.2291054651       -2.4691502199        2.0787249702
 C         2.6589048778       -0.8346596809        3.9639140486
 O         2.8965742124       -0.2117532985        0.3197713750
 O         0.3623426275       -2.3607967704        1.9933182179
 C        -0.7696626429       -0.1176667058        3.3720462553
 C        -2.0365016315        0.7149329617        3.1773740975
 C        -3.0352037280        0.9758415257        4.4525424107
 C        -3.5914951241       -0.4535839702        4.6327007567
 C        -4.7072850728       -1.0766165100        3.6502664091
 O        -2.5289895215        0.8296835603        2.0507963727
 O        -3.2589171699       -1.1815963519        5.6249109530
 C        -2.3893161657        1.5478425439        5.7302482978
 C        -4.0893558067        1.8965106962        3.9080069613
 C        -4.7514901104       -2.5629866464        3.7605912605
 C        -3.8050789624       -3.2923799273        2.8859075886
 C        -4.2323238018       -4.5453177534        1.9717253105
 C        -4.2510579221       -4.1395855082        0.4140301917
 C        -5.1280386113       -5.0088100252       -0.4749057856
 C        -3.2928698933       -5.7858574646        2.1516910961
 C        -5.7191925538       -4.9836657053        2.3523399736
 O        -2.6309264121       -3.0407109617        2.9435548211
 O        -3.5500318631       -3.2690147514       -0.0763823454
 C        -5.4702478095       -4.1456679115       -1.6884686824
 C        -6.0639448313       -2.7928980272       -1.2297571837
 C        -6.4569842334       -1.7726626363       -2.2553350005
 C        -4.9791016838       -1.0787452586       -2.4264763549
 C        -4.5712159321        0.2257882580       -1.6731990646
 O        -6.3475925102       -2.6985100501       -0.0171548027
 O        -4.3072108324       -1.4775014811       -3.3495436383
 C        -6.8366650075       -2.4453857625       -3.5406181056
 C        -7.6476462579       -0.9028746310       -1.6646422831
 C        -3.2602433358        0.7083372705       -2.2479619632
 C        -2.0233379167        0.0527347657       -1.5183214940
 C        -0.5185062534        0.2840508485       -2.2056743124
 C         0.1247748009       -1.1493228677       -1.8484542367
 C        -0.1231002105       -2.3462336107       -2.7470844906
 C        -0.6801890955        0.6254439566       -3.6796385702
 C         0.2396577646        1.4016468425       -1.5399237227
 O        -2.3148480741       -0.6390051868       -0.5664331108
 O         0.6199559638       -1.2470869404       -0.7424188707
 C         0.4866007532       -3.6001763036       -2.0495433645
 C        -0.5393258600       -4.6325949417       -1.5605718530
 C        -0.6350607521       -5.8995034700       -2.5713119955
 C        -2.2323724178       -6.2071107217       -2.4520103752
 C        -2.6695969114       -7.7177957204       -2.3716223254
 O        -1.1936594687       -4.6909835631       -0.5725996563
 O        -3.0660581988       -5.2984995796       -2.6110584944
 C        -0.3174582439       -5.6268958543       -4.0919088513
 C         0.3205621738       -7.0237669190       -2.0347716525
 H         6.9865938610       11.2356503657       -2.2550826517
 H         7.3648328617       10.9873653091       -3.9623150847
 H         5.6212788581       11.3100025977       -3.3562344947
 H         4.7312881237        7.3936066424       -1.4060040191
 H         4.9976403139        6.1850269507       -2.6795053485
 H         7.9582851460        6.4175498231       -4.2706746557
 H         7.8821892923        8.0680949604       -4.9337772903
 H         6.4136123446        7.1612632962       -4.6118342080
 H         8.3630726147        9.4733091269       -1.7554601186
 H         9.2763654711        8.0179068454       -2.0721076566
 H         9.0260761022        9.3211162126       -3.3643070753
 H         5.9518030329        4.5721561950       -1.1226185885
 H         5.4515480902        5.6611252957        0.2875998359
 H         2.4867980619        2.2421197828        0.1750039771
 H         4.2446246491        2.4370184452        0.3937120716
 H         2.3668653427        6.4326051982        2.0331033006
 H         2.3197748390        7.1760585751        0.4293947666
 H         3.8721232864        6.8933928554        1.2568029946
 H         0.5314111846        5.5613688419        0.2959912510
 H         1.4375199199        5.8714436619       -1.3046447814
 H         0.9966501476        4.2746574199       -0.9186620974
 H         2.5255450739        1.5270326548        2.8803039459
 H         4.2438135186        1.5349448238        2.5912398531
 H         0.9346877515        0.7511288763        2.4033694752
 H        -0.4121667999        0.4319181801        1.2405837497
 H         4.2676159706       -2.5531372180        2.4583587591
 H         3.4958960351       -2.6693331722        0.9598663998
 H         2.7748069858       -3.3994393461        2.4668235591
 H         2.0313136163       -0.0098095218        4.2703413435
 H         2.3864927716       -1.7615329728        4.4826002787
 H         3.6642724934       -0.7421135384        4.3068566143
 H        -1.0602384462       -1.1561211610        3.4131889720
 H        -0.3529120341        0.1171876853        4.3949530515
 H        -5.7028064150       -0.6336572297        4.0199905626
 H        -4.5656516015       -0.7399294751        2.5228428379
 H        -3.0848783665        2.0861431399        6.2829785881
 H        -1.6063091969        2.2766405316        5.5948805565
 H        -2.1825682224        0.8072826724        6.3922083941
 H        -3.7739718055        2.9638313962        3.7180611865
 H        -4.3305648825        1.4678352285        2.9288004956
 H        -5.0028796124        1.9486650170        4.5472887477
 H        -5.7692037941       -2.9344096638        3.6357341574
 H        -4.4154908923       -2.9035040294        4.7931837412
 H        -4.7644460593       -5.9934924899       -0.7645510703
 H        -6.0677300427       -5.1427518875        0.0005576355
 H        -3.6890691965       -6.3041993889        3.0667680622
 H        -2.2012843672       -5.5953245685        2.1688040322
 H        -3.5168506064       -6.5721949185        1.4797646395
 H        -6.0659124709       -5.9147292506        1.8685848282
 H        -5.7390990855       -5.3438964883        3.3403908211
 H        -6.4387786029       -4.1382172548        2.2001619955
 H        -4.4818262862       -3.8466815694       -2.0733020912
 H        -6.0190475007       -4.6020781327       -2.4706968222
 H        -5.3429715223        0.9637138064       -1.8440778171
 H        -4.4894380761        0.1515453414       -0.5933306643
 H        -7.3272774398       -1.8081074471       -4.3235151277
 H        -7.6032521972       -3.1964153935       -3.3600506318
 H        -6.0813772437       -3.0184229433       -4.0456459195
 H        -8.2351970498       -0.5462375463       -2.5015151684
 H        -8.2400371775       -1.5744558639       -1.1005792381
 H        -7.2754087624       -0.1499680447       -0.9033403801
 H        -3.1502549256        1.7904131502       -1.8122097423
 H        -3.0700903777        0.5127906654       -3.3305021670
 H        -1.1734213397       -2.4530225724       -2.9455099964
 H         0.4427843461       -2.1056254496       -3.6789981900
 H         0.2772075129        0.4941659977       -4.2564045451
 H        -1.1642705235        1.6246439800       -3.9443825116
 H        -1.3282993122       -0.1471343015       -4.0808903003
 H         0.6758286962        2.0559953017       -2.3373950749
 H        -0.2507886240        2.0252332448       -0.8390102106
 H         0.9676511148        0.9036971069       -0.8707542056
 H         1.1532938239       -4.1036249817       -2.7229257917
 H         1.0203996269       -3.3124876863       -1.0895641357
 H        -3.6752822824       -7.8661955925       -2.7247348290
 H        -2.1248570216       -8.2869203533       -3.0656819580
 H        -2.7320579245       -8.2223307771       -1.4627794458
 H        -0.9168484802       -4.7986913415       -4.4251688319
 H        -0.6404984210       -6.4931411457       -4.5670309877
 H         0.7240609728       -5.4108953653       -4.3166708999
 H         0.4355782280       -7.8548055175       -2.8104407403
 H         1.2500866131       -6.6288946080       -1.6980621942
 H        -0.0594861662       -7.5844454498       -1.2071795689
 Na       -1.6118365465       -2.5716710948        0.9520667232
