155

 C         6.1463901678        9.9558742589        1.3990753505
 C         5.4812727737       10.5513573064        0.1063910082
 C         5.8992454157        9.9368894884       -1.2266458712
 C         5.8625984500        8.3109076225       -1.2474725091
 C         4.5937110672        7.6297458829       -0.7708920531
 C         4.8103800179       10.2592530886       -2.2955149407
 C         7.3058573562       10.4375678428       -1.5544052127
 O         4.7111335398       11.4483134567        0.0198264802
 O         6.8220473128        7.6420805462       -1.5310577437
 C         4.8991303141        6.5846088050        0.3115684056
 C         3.5380261098        5.7087511452        0.5597211369
 C         3.1160514902        5.3001671673        2.0826220555
 C         3.6047881902        3.8834714936        2.4510725260
 C         3.3049772390        2.4768621343        1.6463606645
 O         2.8850614458        5.3618885567       -0.3834624473
 O         4.1693010181        3.8205501531        3.5298634234
 C         3.5628477683        6.4288596551        3.0343173704
 C         1.6112602250        5.2196380547        2.0155469700
 C         2.3480277826        1.7080640324        2.5054575141
 C         2.0757180456        0.2509527000        2.0288077370
 C         1.2202159738       -0.7241233374        2.9989590220
 C        -0.0139218264       -1.0237379433        2.0638832694
 C        -1.1791413258       -0.0193818381        1.7830534823
 C         2.1430327454       -1.9758284493        3.1576393525
 C         0.6549188922       -0.2393388000        4.4133517436
 O         2.4353410039       -0.2285238307        0.9557545807
 O        -0.1938906513       -2.0834715837        1.5389895670
 C        -2.1662199777        0.1244404085        2.9148750781
 C        -3.2873712327        1.0737496869        2.5768558695
 C        -4.5256203497        0.9658046753        3.5848169706
 C        -5.1727925083       -0.4657130494        3.4687360462
 C        -5.9817685846       -0.8501797153        2.2110902332
 O        -3.2623743467        1.7824519156        1.5900880054
 O        -5.0882497716       -1.2592802350        4.4162017563
 C        -4.1066076621        1.3570752377        5.0588838753
 C        -5.5396221930        2.1156270121        3.2178507435
 C        -5.9763103759       -2.4003668251        2.0264168853
 C        -4.6982800257       -2.9263275574        1.4411771280
 C        -4.6949469113       -4.4092062899        1.0485603268
 C        -4.3523724035       -4.3750285771       -0.6834548667
 C        -5.4202861871       -5.0953526951       -1.3692710156
 C        -3.3721801146       -4.9200178812        1.6697983454
 C        -5.8553413382       -5.3499146944        1.5000148329
 O        -3.6538429571       -2.2682788141        1.3508884702
 O        -3.2802622777       -4.0090196397       -1.1691599409
 C        -5.5057570623       -4.6091884259       -2.8288458819
 C        -6.1214100774       -3.2471062918       -2.8600883466
 C        -6.2759675640       -2.6568105616       -4.3271756973
 C        -4.8250898336       -2.0718501771       -4.4619828026
 C        -4.4934862401       -0.6310796002       -3.9077700056
 O        -6.3482621467       -2.6277372376       -1.8510278232
 O        -3.9727729976       -2.8270878497       -4.8962365525
 C        -6.5988321617       -3.7758313951       -5.3974327466
 C        -7.3681428100       -1.5125579260       -4.2777707107
 C        -3.0181103731       -0.5147400018       -4.1145866862
 C        -2.1152365639       -1.2797278168       -3.0914744258
 C        -0.8465991871       -1.9430221342       -3.6418726993
 C         0.2403224296       -2.1817112501       -2.4418760509
 C         1.4901798241       -3.0296941094       -2.7952884841
 C        -1.0869046286       -3.2249957464       -4.3705274135
 C        -0.0662554983       -0.9369204889       -4.6248199454
 O        -2.2879384305       -1.1008426891       -1.9002536536
 O         0.2135028165       -1.5678715871       -1.4392274327
 C         2.1873083845       -3.6832270568       -1.6212269994
 C         1.3884597437       -4.6593693479       -0.7823214072
 C         2.1382641572       -5.8676668810       -0.0484242676
 C         3.2253948928       -6.4586855608       -0.9467083411
 C         3.1810055989       -7.7966770318       -1.7425917033
 O         0.2460007672       -4.4156453825       -0.4453905364
 O         4.3150550219       -5.8875752851       -1.1396078080
 C         2.8952990180       -5.3083434302        1.2075711837
 C         1.1471453706       -6.9583082050        0.3225711167
 H         6.0766885769       10.7144199234        2.1452795719
 H         5.6561028250        9.0236785648        1.6278803135
 H         7.1686699600        9.7346583525        1.2393832087
 H         3.9685109007        8.4500565718       -0.3283581403
 H         3.9187409756        7.1412294562       -1.5704699550
 H         4.9570286214        9.6394793119       -3.2143160863
 H         4.9182122994       11.3041623938       -2.4645279755
 H         3.7892153501       10.1055759674       -1.9549084847
 H         7.9854937028       10.0749439547       -0.8077872202
 H         7.6483382408        9.9519130643       -2.4619278884
 H         7.2260653062       11.5347991867       -1.6674294936
 H         5.6378590178        5.7470767508        0.0577929082
 H         5.1955549348        7.1107127071        1.1909959069
 H         2.8347231711        2.4826082062        0.6946694412
 H         4.2302809395        1.8097227261        1.5523202846
 H         3.7595890604        6.3278037164        4.1526790495
 H         2.8253480174        7.2805090633        2.9244296747
 H         4.4980228622        6.8044180784        2.7078476850
 H         1.1739363891        4.8306969409        2.9245964765
 H         0.9751914436        6.0593696674        1.7444352341
 H         1.4073239423        4.4064916723        1.3136998535
 H         1.3960151989        2.2324989180        2.4759962743
 H         2.6679107087        1.6508344352        3.5072890181
 H        -0.9763921714        1.0225900266        1.5395857775
 H        -1.7398195810       -0.4561899822        0.9262679188
 H         2.8281442600       -1.9346071456        3.9947461651
 H         2.6353712584       -2.1132701835        2.1547181818
 H         1.5466545839       -2.8431224222        3.3286894875
 H         0.5083154821        0.8143360953        4.3867434360
 H        -0.2171629984       -0.8859591124        4.6517231159
 H         1.3931155401       -0.4139860783        5.1999967530
 H        -2.4153313840       -0.8215156854        3.3679534211
 H        -1.6273919528        0.7544116124        3.7376628217
 H        -6.9755721522       -0.5773547643        2.4705945813
 H        -5.4724597824       -0.2774671692        1.4877572881
 H        -4.0604678169        2.4704217633        5.0864965559
 H        -3.0255424508        0.9418899565        5.3524787713
 H        -4.8038229871        0.8720563255        5.6834054804
 H        -4.9455106791        3.0036841878        3.2093299228
 H        -6.0805987157        1.8942878841        2.2924194761
 H        -6.2188052740        2.3991799222        4.0872362293
 H        -6.6915912971       -2.6542483790        1.2641807941
 H        -6.2590208935       -2.8750534635        3.0136613203
 H        -5.0938741942       -6.1157382181       -1.2673988808
 H        -6.4240637914       -4.9024310787       -0.8977520688
 H        -3.0548763350       -4.2319444028        2.5471949173
 H        -2.6193621813       -4.8068882432        0.9083820381
 H        -3.3557233410       -5.9749233605        1.8859905564
 H        -5.8132591221       -6.3181540706        1.0356215992
 H        -5.8324389108       -5.6688646681        2.5322644657
 H        -6.8494680207       -4.9392653789        1.3541170631
 H        -4.5781896624       -4.6282345840       -3.3445216590
 H        -6.1119575228       -5.1960275416       -3.4629052073
 H        -4.9648968120        0.1293098750       -4.5501569710
 H        -4.7971128130       -0.6008928514       -2.8591073596
 H        -6.9601718192       -3.3109190027       -6.3300327134
 H        -7.3932975454       -4.4393920044       -5.0293910638
 H        -5.6415524148       -4.2673223301       -5.5704478042
 H        -8.3266937628       -1.8802190704       -4.4840879763
 H        -7.4697157519       -1.0631257965       -3.2752826503
 H        -7.1180897049       -0.6850933944       -4.9905121880
 H        -2.5414222947        0.5087714761       -4.0245992770
 H        -2.7773243713       -0.8579124470       -5.0780985823
 H         1.2296040183       -3.7271397166       -3.5507768265
 H         2.2803468211       -2.4436709250       -3.3105511843
 H        -0.2913553898       -3.5926733056       -5.0372647353
 H        -2.0608300205       -3.1697462524       -4.8254790820
 H        -1.3357651817       -4.1458572621       -3.7470479224
 H        -0.6648976903       -0.5706671996       -5.3761296597
 H         0.1757607372       -0.0001235634       -4.1133919786
 H         0.7958892504       -1.4051080137       -5.0563609132
 H         3.0070097105       -4.2109360210       -2.0991670994
 H         2.7242250342       -2.8509894027       -0.9961271198
 H         2.6010902076       -7.5550932580       -2.6074130754
 H         4.1832834289       -7.9370335889       -1.9762295841
 H         2.6825726000       -8.5705164019       -1.1764211269
 H         3.6377740848       -4.5456388126        1.0017016394
 H         3.5493612288       -6.1124681749        1.5459933004
 H         2.2299170536       -4.8720114288        2.0251744598
 H         1.4121157290       -7.7190675922        1.0250065200
 H         0.2141764809       -6.5508559379        0.7196093529
 H         0.7612501195       -7.4630417241       -0.5910721454
 Na       -1.4271567621       -2.7095952227       -0.3290105689
