155

 C         6.9229194336       10.5983566581        1.3524221263
 C         5.7345665221       10.8199308247        0.4114382869
 C         5.8193693190       10.0638654217       -0.9170861307
 C         5.8198870654        8.5101532150       -0.5447249611
 C         4.5566941442        7.8380804275        0.0509809493
 C         4.5389624727       10.2126558971       -1.8654256227
 C         6.9850240087       10.3677376001       -1.8203600725
 O         4.7963193656       11.4343351672        0.7143326091
 O         6.7737520586        7.7946722499       -0.8444208264
 C         4.7270677876        6.2824630750        0.1576668431
 C         3.3694289049        5.5987402456        0.4988194084
 C         2.9862374241        5.3471747134        1.9775001310
 C         3.8273227678        4.0227083891        1.9052613383
 C         3.2257053202        2.6640379898        1.3734423670
 O         2.7557777187        5.0158493264       -0.3727417611
 O         4.9616445705        3.9940798578        2.4022222105
 C         3.6178264932        6.2864014352        2.9883815815
 C         1.5057602493        5.1317340949        2.2239451857
 C         2.5908140997        1.8423452888        2.5460610689
 C         2.0299416051        0.4728301209        2.0730723642
 C         1.1857697342       -0.5345259846        3.0005355981
 C        -0.2478308512       -0.8744227615        2.2903632892
 C        -1.2900275394        0.2781009871        2.2707985051
 C         1.9725607568       -1.8693709413        2.9217976790
 C         0.7367299010       -0.1734319696        4.4187397065
 O         2.0350546405        0.1160555858        0.9395079709
 O        -0.4765752903       -1.9611315739        1.8285777734
 C        -2.6530315713       -0.0285565423        3.0256134320
 C        -3.6035186479        1.0946075278        2.6558718273
 C        -5.0027772450        0.9289019543        3.3467030146
 C        -5.2800831090       -0.4952232100        3.0388682085
 C        -5.8428159310       -0.9149133055        1.7048794208
 O        -3.4373134529        1.9168008295        1.8082310424
 O        -5.1717647136       -1.3569825859        3.9200538113
 C        -4.9330556335        1.2418298983        4.8581356938
 C        -5.9803817113        1.9672646849        2.7535718684
 C        -5.9174159140       -2.4245118655        1.5982667158
 C        -4.5315261707       -2.9847937688        1.1719160342
 C        -4.1756484034       -4.4492538918        1.0963883656
 C        -4.0373019037       -4.6613725349       -0.4887627305
 C        -5.2058878419       -5.3521449561       -1.2442342589
 C        -2.9182010155       -4.8915805133        1.7668429809
 C        -5.3341031337       -5.3601178813        1.6910289100
 O        -3.6513859088       -2.2366522090        0.8427979345
 O        -3.0752706974       -4.3580678304       -1.1024443322
 C        -5.1534319824       -4.8526134779       -2.6769429914
 C        -6.2173392456       -3.8447367850       -2.9149946882
 C        -6.0444512877       -2.7426044035       -4.1668480517
 C        -4.5399807351       -2.3275866166       -4.4306640328
 C        -4.1876104796       -0.8965725115       -4.0897935644
 O        -7.0879979699       -3.6229596642       -2.1040170911
 O        -3.8102995532       -3.0799546944       -5.0283473903
 C        -6.5853015460       -3.4941971714       -5.4050303204
 C        -6.9759412717       -1.6074564719       -3.8848497889
 C        -2.7302959839       -0.7077293178       -4.4521540725
 C        -1.9078373860       -1.5403163111       -3.3414889735
 C        -0.4968887495       -2.0474097311       -3.7323282095
 C         0.4305486928       -2.0044759389       -2.4566058972
 C         1.8412915486       -2.5388831636       -2.3629629490
 C        -0.5857051735       -3.4321589769       -4.4862267415
 C         0.1710346505       -1.0010376960       -4.5962563637
 O        -2.2949349082       -1.7266700691       -2.2465395997
 O         0.0983939722       -1.3801840010       -1.4805900425
 C         2.1139050286       -3.2311569582       -1.0570335416
 C         1.2316562350       -4.4739298812       -0.7627185666
 C         1.7496807931       -5.8631489233       -0.2390411461
 C         3.2895609224       -6.0686674128       -0.6349154495
 C         3.6980202281       -7.3028554695       -1.5142307006
 O         0.0220347773       -4.3380436761       -0.7077128342
 O         4.0848704041       -5.2114400117       -0.2464392450
 C         1.8261626481       -5.7503104268        1.3695296682
 C         0.8142130767       -6.9767847083       -0.6693556550
 H         6.7835314650       11.1420388195        2.2023459384
 H         6.8333298503        9.5802887603        1.6598109091
 H         7.8521660489       10.8112850664        0.8251306188
 H         4.1127153569        8.2480164005        0.9814203639
 H         3.8327365873        8.2134286278       -0.6397945396
 H         4.7166100569        9.5728443912       -2.7263130497
 H         4.4653437225       11.1613205250       -2.3025562975
 H         3.6354666192        9.9403607829       -1.3681562420
 H         7.8599447444        9.9931667348       -1.3331919429
 H         6.8042850972        9.9006256173       -2.7806231735
 H         7.0510790481       11.4611659795       -2.0642897798
 H         5.1300308426        5.8513956450       -0.7400718308
 H         5.4508219412        6.0015697916        0.9615154002
 H         2.3607591557        2.8179372521        0.6349924441
 H         3.9037426372        2.1848211898        0.7564382560
 H         2.9353017700        6.3563603852        3.8798436778
 H         3.8066200356        7.3646508714        2.8214909550
 H         4.4931790623        5.8171944354        3.5054850248
 H         1.1688205493        4.3708833724        2.9061108314
 H         0.9967481791        6.0905580772        2.5157433815
 H         0.9275701535        4.9926400561        1.2434334396
 H         1.8852044389        2.4804787682        3.0578364494
 H         3.4204343416        1.6519701811        3.2591916209
 H        -0.9094351663        1.2632112513        2.5808472307
 H        -1.6652342012        0.4392045168        1.2747926378
 H         2.8474987181       -1.9517603094        3.4931866614
 H         2.3304253043       -2.0600710949        1.9179521121
 H         1.3178971512       -2.6506131503        3.1078889438
 H         0.3124650567        0.8655193969        4.3107584846
 H        -0.1378339930       -0.7673394360        4.6863354477
 H         1.4618233608       -0.2680110358        5.1733864949
 H        -3.1400741858       -0.8825277141        2.5495847036
 H        -2.4078279079       -0.2063112091        4.0101077150
 H        -6.8142823091       -0.3823580927        1.5462343613
 H        -5.1013289418       -0.3746196687        1.1192566182
 H        -3.9344999883        0.9467108627        5.3158047864
 H        -5.7128710862        0.6530704882        5.5098716248
 H        -4.9868848455        2.2574812741        4.9768075659
 H        -5.5906698630        2.9979544144        2.9556650238
 H        -6.0316247502        2.0139028285        1.6668904210
 H        -6.8846589355        1.8641080579        3.3210493358
 H        -6.6607624393       -2.6392526895        0.8562122348
 H        -6.2952659332       -2.8989780216        2.4103703063
 H        -5.0675475627       -6.3840038794       -1.3586047004
 H        -6.2618388035       -5.0261570717       -0.7827381969
 H        -3.1631082376       -5.1495323395        2.7803796491
 H        -2.0628810402       -4.1848888173        1.6407383484
 H        -2.6598480265       -5.8891767918        1.4022948005
 H        -5.3114663519       -6.4268351170        1.3827255441
 H        -5.3413369761       -5.2608866843        2.7438949058
 H        -6.3402186386       -5.0177912151        1.3586744273
 H        -4.2339081536       -4.4083352073       -2.9090673819
 H        -5.2927866421       -5.6571029842       -3.3944785292
 H        -4.8285055519       -0.2813426858       -4.7149887301
 H        -4.5114496357       -0.7163715827       -3.0357637789
 H        -6.8333276663       -2.7489286569       -6.2369629853
 H        -7.4562013296       -4.0645568270       -5.0507156682
 H        -5.8698610571       -4.2247431134       -5.7836091401
 H        -8.0553542084       -1.9543739361       -3.8693643191
 H        -6.7849275465       -1.2350661075       -2.9253793700
 H        -6.9594033482       -0.7952518536       -4.6199364347
 H        -2.3921535439        0.3805886564       -4.3005945976
 H        -2.4607074152       -1.1184584876       -5.4662502796
 H         1.9970865735       -3.2625199024       -3.2114149318
 H         2.4731904687       -1.6319823090       -2.4070199359
 H        -0.0071668792       -3.4737204503       -5.3936100392
 H        -1.5355674838       -3.8859330012       -4.7645745707
 H        -0.0002486562       -4.1782497409       -3.8124697679
 H        -0.3055236798       -0.8816182708       -5.5875518955
 H         0.4096088272       -0.1068707771       -4.0777880608
 H         1.1663830473       -1.3470371653       -4.8385788426
 H         3.1734907582       -3.5507734523       -0.9182576369
 H         2.0034635303       -2.4694397277       -0.3256607448
 H         2.8957238504       -7.4509127689       -2.1938301253
 H         4.6529570462       -7.1369572866       -1.9524534100
 H         3.8313226903       -8.0540244058       -0.8079129827
 H         2.2701864291       -4.8697938193        1.7368668943
 H         2.1219230353       -6.6062675062        1.9433567421
 H         0.7846847531       -5.7998279846        1.6887515036
 H         1.1011512614       -8.0306966762       -0.3512515930
 H        -0.2288673789       -6.8577924440       -0.4457440819
 H         0.8434242151       -7.1598811264       -1.6976307161
 Na       -1.4649703578       -2.5837782088       -0.2945402030
