155

 C         7.3807316437       11.9277653302        0.9151200573
 C         6.2181540337       10.8814189476        0.6530032175
 C         5.7869244407       10.3408770107       -0.6877770644
 C         5.6989548135        8.7688193076       -0.4020960548
 C         4.3365780773        7.9859198253       -0.3965109457
 C         4.4443020589       11.0543165932       -1.1639584652
 C         6.8161278830       10.5610831104       -1.8003613654
 O         5.5236933741       10.5857500088        1.6312206673
 O         6.6956469060        8.1890377423       -0.0933149619
 C         4.6820933192        6.5587175301        0.2003521967
 C         3.3089064698        5.8390704643        0.5570038657
 C         3.1064511494        5.0423732674        1.9625489587
 C         3.8640984881        3.7431556796        1.9377172345
 C         3.1695106288        2.4757574991        1.3249490563
 O         2.3148890915        6.0382325946       -0.0907596023
 O         5.0532186964        3.7297462942        2.0795834765
 C         3.7145238113        6.0230474697        3.0485331262
 C         1.6105737146        4.8575570755        2.2934353572
 C         2.7500571260        1.5107935944        2.4373923281
 C         1.9507247076        0.2971801450        1.9899845389
 C         0.9989392384       -0.4939466086        2.9568053593
 C        -0.3281301845       -0.8922616678        2.2841500417
 C        -1.3528356969        0.2411750095        2.2904094814
 C         1.7586746655       -1.8077467682        3.4545027352
 C         0.8696664807        0.4635336238        4.2440916319
 O         2.1275477935       -0.0408252386        0.8026769735
 O        -0.3874652713       -2.0479047332        1.7744291012
 C        -2.7742185620       -0.1879061349        2.6486337715
 C        -3.8325219530        0.7998376189        2.3485583075
 C        -5.3673322403        0.6197302778        2.8617430760
 C        -5.6353467556       -0.8869242248        2.4676387906
 C        -6.3138356337       -1.3094883210        1.0865557072
 O        -3.6545792607        1.8647078959        1.7461877026
 O        -5.2258525665       -1.7218184466        3.2600233030
 C        -5.4219369307        0.9093370554        4.3694859684
 C        -6.1659433171        1.7157134394        2.1243715868
 C        -6.1751088111       -2.7894333828        1.0080171259
 C        -4.7678940333       -3.1817199152        0.7909924230
 C        -4.2111239928       -4.5456006352        0.9223299295
 C        -3.9853879533       -4.9365303276       -0.6373315220
 C        -4.8846843618       -5.8787012673       -1.3007895858
 C        -2.8519512862       -4.5627040818        1.6793800247
 C        -5.2176764255       -5.4507507588        1.7005767628
 O        -3.9401758120       -2.3553798651        0.4180297228
 O        -3.1557234080       -4.2982762362       -1.3032284618
 C        -5.4162486397       -5.3426959019       -2.7516626942
 C        -5.9450188856       -3.9201880785       -2.7577147951
 C        -5.8641240928       -3.0678730478       -4.1091573374
 C        -4.3315324848       -2.9052780952       -4.5328582754
 C        -3.7929208793       -1.5264758613       -4.8575699689
 O        -6.4334855579       -3.4910287055       -1.7062455120
 O        -3.7140142801       -3.9042991745       -4.8092814709
 C        -6.6313242386       -3.8299541390       -5.2063375385
 C        -6.5524325786       -1.7406064399       -3.8950236892
 C        -2.3017227850       -1.5034064342       -4.8074198478
 C        -1.7074999758       -1.6863718690       -3.4700453564
 C        -0.1486057614       -1.8153024341       -3.4293288268
 C         0.2785049499       -1.5115638886       -1.9766813864
 C         1.7291413275       -1.9670893722       -1.5855814519
 C         0.1501299292       -3.3004409744       -3.6893782850
 C         0.5632428520       -0.8052690207       -4.3452800123
 O        -2.4826733880       -1.7333320488       -2.5283298122
 O        -0.3214099633       -0.8070348188       -1.1792745463
 C         1.7395061605       -2.9478659113       -0.3204781759
 C         0.9805005747       -4.2576148888       -0.4575289698
 C         1.7686404413       -5.6672699288       -0.3113000742
 C         3.2941880132       -5.4852520401       -0.1686773561
 C         4.1855456939       -6.2273234426       -1.1945148336
 O        -0.2303998501       -4.2942073521       -0.5842655661
 O         3.7925599245       -4.8534402267        0.7425436582
 C         1.1461465268       -6.1537754770        1.0138748108
 C         1.4354793260       -6.5331482752       -1.5680863909
 H         7.0384647574       12.3590290545        1.8995957798
 H         8.3275045853       11.3568250189        1.0612110962
 H         7.4798284531       12.6107169569        0.0605020913
 H         3.6897714238        8.5967691063        0.3161704409
 H         3.8792113816        7.8771057583       -1.3905078192
 H         3.6763723190       10.5225603950       -1.8157585916
 H         4.7509111180       11.9427948241       -1.6827500268
 H         3.8103544781       11.4611767753       -0.3510902316
 H         7.7295656570       10.1034420412       -1.4987896415
 H         6.5297805752       10.0480388405       -2.7160243263
 H         6.9972968967       11.6709024971       -1.8840676774
 H         5.3194633290        5.8893656231       -0.4773487615
 H         5.2894717425        6.7138336454        1.1003203107
 H         2.2684620872        2.7804799100        0.7643655950
 H         3.9268761559        1.9237624239        0.7701924783
 H         4.7991048415        6.0478760357        2.8682315873
 H         3.6283591686        5.4230353686        3.9575239367
 H         3.1837199262        6.9257863869        3.0615786555
 H         1.4453385745        4.0112524406        2.9334285529
 H         1.2778354828        5.7657906566        2.7338082250
 H         1.0773115996        4.6112646146        1.4234504170
 H         2.2775599059        2.0243092325        3.2010328447
 H         3.6200421309        1.1010001761        2.9868565837
 H        -1.0952163718        1.1300972463        2.9134530254
 H        -1.3420666560        0.5355540074        1.2254975757
 H         2.4172762206       -1.7487182173        4.3627845476
 H         2.3491447524       -2.4156793966        2.7312452418
 H         1.0543038018       -2.5780152485        3.8619459680
 H         0.5670696364        1.4698980332        3.9617902578
 H         0.1929240546        0.0510549246        5.0196302996
 H         1.8415238321        0.5687233384        4.6214179906
 H        -2.9729018400       -1.0686913211        1.9802812931
 H        -2.9287943108       -0.6210755394        3.6879895051
 H        -7.3973548638       -1.0715041892        1.1037420329
 H        -5.9219503835       -0.6788483212        0.3594528516
 H        -4.8226004373        0.1826917189        5.0037451761
 H        -6.3974802597        0.9559595732        4.7745711811
 H        -4.9932824947        1.9702769841        4.8018745479
 H        -5.8298072345        2.6772368613        2.4013879266
 H        -6.2672588231        1.5586239135        1.0842636593
 H        -7.2281810893        1.6008898913        2.4532464131
 H        -6.7519727775       -3.3262017368        0.2485971511
 H        -6.6564619241       -3.2381332116        1.8779431116
 H        -4.3960110401       -6.7755941319       -1.5693892541
 H        -5.6975590168       -6.2997535944       -0.7002402174
 H        -2.8503346941       -3.7797667659        2.5010215583
 H        -2.0778737793       -4.3057881966        1.0178362456
 H        -2.6814906170       -5.5768751914        1.9074049704
 H        -4.6844909994       -6.3967165912        1.8054465603
 H        -5.4006107329       -5.1261581442        2.6864611981
 H        -6.0579149413       -5.5405971158        1.0084524063
 H        -4.5466359556       -5.3973466161       -3.3738797549
 H        -6.2390673047       -5.8990683919       -3.2051606802
 H        -4.1302955338       -1.1747693952       -5.8095218428
 H        -4.3498824856       -0.9036477667       -4.1703556144
 H        -7.0418489187       -3.1654371343       -6.0354594828
 H        -7.5301087972       -4.3195762042       -4.8633727297
 H        -5.9559958669       -4.5442481730       -5.6093354237
 H        -7.5899605671       -1.8459435952       -3.6645919640
 H        -6.0428920953       -1.1218718949       -3.1802348952
 H        -6.4384529000       -1.1469790015       -4.8694268477
 H        -1.9016189198       -0.5064666433       -5.2208813052
 H        -1.8811541931       -2.2965056195       -5.3806011141
 H         2.2407495034       -2.2727020130       -2.4851793129
 H         2.2773744502       -1.0801505716       -1.2131222051
 H         0.8318313776       -3.7186514261       -2.9446837790
 H         0.6477594623       -3.3178890997       -4.6673295223
 H        -0.7817916347       -3.9212878660       -3.7247709224
 H         0.5411015531       -1.1103928629       -5.3544355023
 H        -0.0327218413        0.1375687042       -4.3583797641
 H         1.6323600891       -0.7107506701       -4.0760528117
 H         2.7513557314       -3.1185055695        0.1073879008
 H         1.1550446271       -2.3623467869        0.4632935288
 H         3.8769099243       -5.9042670150       -2.2346757464
 H         5.1831602808       -5.8334058518       -1.0849438488
 H         4.0373187748       -7.3250400295       -0.9739493085
 H         1.3531487745       -5.4445289974        1.7885235342
 H         1.5618432894       -7.0522633954        1.4732461485
 H         0.0233613087       -6.0765327436        0.9393956632
 H         1.7028729773       -7.5563086614       -1.3771662459
 H         0.3461668196       -6.6133688149       -1.7566366176
 H         1.8550929628       -6.2151603917       -2.5392696810
 Na       -1.7378839495       -2.5126132961       -0.3167984137
