155

 C         7.2440518933       12.3338149833        0.9294377516
 C         6.3871352864       11.0653048846        0.8866807284
 C         5.8175142141       10.3992843419       -0.4512558879
 C         5.7760561231        8.7967325167       -0.1868628335
 C         4.5927528167        8.2896305353        0.6554057031
 C         4.3612894174       10.9805774108       -0.5988172124
 C         6.6094874767       10.8929270991       -1.6853021154
 O         6.1616815434       10.4100063099        1.9079054540
 O         6.5679694358        7.9491332037       -0.5482768111
 C         4.7104605080        6.7969293831        0.8182695363
 C         3.4006798488        6.1578130969        0.9344247961
 C         3.1385046870        5.1849968108        2.1693720506
 C         3.7596124139        3.8206843438        1.8282450747
 C         2.9368268954        2.6249437204        1.3040913279
 O         2.4563763607        6.5575602907        0.2541326004
 O         4.9778896521        3.8644517758        1.7269030363
 C         3.8778375632        5.7231273217        3.5074627824
 C         1.6472366264        5.2159734770        2.4153814017
 C         2.2732872248        1.8205328458        2.4212137727
 C         1.6135377280        0.4575439799        2.0294462302
 C         0.5162047114       -0.2383917257        3.0548849718
 C        -0.6047453208       -0.5832445440        2.0495182897
 C        -1.6476045503        0.4125057421        1.6023611209
 C         1.0814017949       -1.6174197231        3.5278126474
 C        -0.0381455657        0.5708287152        4.2006572887
 O         1.9466085543       -0.1146410321        1.0646893736
 O        -0.6770387390       -1.7012294884        1.6243587625
 C        -2.8450141534        0.2846122224        2.4508189693
 C        -4.1107191980        0.9874280309        1.8651051132
 C        -5.4146603863        0.8123108882        2.8144204959
 C        -5.6299187318       -0.8819948146        2.6980006869
 C        -6.4864247804       -1.4629220348        1.6784970261
 O        -4.1594975026        1.4594832637        0.7584951967
 O        -4.9147211408       -1.5547940464        3.3515488152
 C        -5.2074990534        1.2487847356        4.2534523471
 C        -6.4210098452        1.6134392240        2.0768130874
 C        -6.3697111277       -2.9990251663        1.7362149891
 C        -4.9284853939       -3.3712372641        1.0252034496
 C        -4.5723300148       -4.9346293226        0.9368770416
 C        -4.0700730782       -5.1019935368       -0.5545524753
 C        -4.8231100371       -6.0419547167       -1.4399512483
 C        -3.4192490506       -5.1718475085        1.9652928752
 C        -5.8236209602       -5.7983158630        1.1739780547
 O        -4.2093779716       -2.5471841303        0.5595625825
 O        -3.0525002365       -4.5868674311       -0.9615792923
 C        -4.7605350486       -5.6310738602       -3.0003239695
 C        -5.4144902898       -4.2247260907       -3.1623874982
 C        -5.6367512069       -3.6782068405       -4.7112947685
 C        -4.2860760499       -3.1384770635       -5.1031679189
 C        -3.8745504932       -1.5264183742       -5.0581056307
 O        -5.7495730844       -3.5439649031       -2.2251982802
 O        -3.3907892078       -3.9080670378       -5.4226053508
 C        -5.9720888451       -4.8000554199       -5.5937892843
 C        -6.7257728244       -2.5349092453       -4.6892174929
 C        -2.3526990688       -1.3600654036       -4.9455675507
 C        -1.6036190042       -1.7346511249       -3.5481460598
 C        -0.0017530182       -1.7466946281       -3.4636607915
 C         0.4840788660       -1.5268633878       -1.9873892306
 C         1.8740497625       -2.0459612258       -1.7236412067
 C         0.2679442429       -3.2617894877       -3.8431930992
 C         0.5561197416       -0.7840966665       -4.5590122871
 O        -2.2910566881       -2.0401367082       -2.5671993958
 O        -0.2754485172       -1.0251574886       -1.1787058371
 C         1.9206988513       -2.7507901997       -0.3194093939
 C         1.2781739208       -4.1183733407       -0.2944956924
 C         2.1088236639       -5.4701232262       -0.3534124911
 C         3.4827461197       -5.2930761549        0.3460070347
 C         4.7186671902       -5.2430743090       -0.5442490041
 O         0.0717384036       -4.1883848477       -0.2221431086
 O         3.5266509565       -5.2381934669        1.5554416200
 C         1.4279017095       -6.5249729252        0.4348494723
 C         2.1367261935       -5.8538401424       -1.8572006309
 H         7.6977733331       12.5196521573        1.8979325912
 H         7.9570756384       12.2024953676        0.1268907592
 H         6.6038212609       13.1644760708        0.7941567334
 H         4.7003763790        8.8061126489        1.5905584716
 H         3.7044696598        8.5487629891        0.1540232892
 H         3.8000479171       10.7727810480       -1.4690159856
 H         4.4804602571       12.0828362755       -0.5911660858
 H         3.7541817424       10.8346249981        0.2716948922
 H         7.6000844794       10.3942907688       -1.6982148505
 H         6.1392027254       10.8403734920       -2.6741497713
 H         6.9157589259       11.9487393708       -1.5488335710
 H         5.0569250998        6.5026065375       -0.2105504890
 H         5.3054955648        6.4603559286        1.5920207955
 H         2.2132501159        2.9335260977        0.5692980435
 H         3.6675243177        2.0140181981        0.6566832153
 H         4.8960953038        5.3802658579        3.4198553045
 H         3.2793418584        5.3148065881        4.3280617237
 H         3.8655459264        6.8345421007        3.4320830383
 H         1.5419949770        5.0243186080        3.5532072219
 H         1.1561069139        6.2312452910        2.3166286909
 H         1.1987081790        4.5078565844        1.6797625839
 H         1.4937334314        2.4883388393        2.8362055452
 H         3.0948036406        1.6293892106        3.2131217957
 H        -1.2884741330        1.4420384083        1.5648856590
 H        -1.8253411566        0.0828169272        0.5932577092
 H         1.5825017519       -1.5227910481        4.4547353790
 H         1.8366814092       -1.9873194799        2.9476816552
 H         0.3960856981       -2.4349674034        3.6146106414
 H        -0.3251839869        1.5585377185        3.9264591456
 H        -0.9660820736        0.0378866606        4.5456805433
 H         0.6812732778        0.5836718322        5.0576701469
 H        -3.1129395085       -0.7586005985        2.5863315357
 H        -2.6414670818        0.6575618794        3.4879239689
 H        -7.5601772825       -1.1158722071        1.6199171871
 H        -6.0419910148       -1.2193430049        0.7104387603
 H        -4.6816079627        0.4672235332        4.8551151575
 H        -6.2246775429        1.3381186516        4.8684048321
 H        -4.6714953155        2.1082119944        4.2824465392
 H        -6.2447313839        2.6758835783        2.1241117718
 H        -6.5034793244        1.4232431393        0.9975535051
 H        -7.3940561955        1.4700787273        2.6379640129
 H        -7.0892964105       -3.6261351118        1.1759865860
 H        -6.2189937818       -3.2817865585        2.8721803192
 H        -4.6303938486       -7.1133687135       -1.4285920970
 H        -5.8244479278       -6.0533216080       -1.2625697351
 H        -3.5188002050       -4.6231567059        2.9135512109
 H        -2.5184275320       -4.9266551343        1.4016720369
 H        -3.3680025505       -6.2244903536        2.2759952311
 H        -5.6046787017       -6.7798167800        0.8319576442
 H        -6.1133509163       -5.7347187153        2.2598286271
 H        -6.6487525272       -5.4202104883        0.6103630325
 H        -3.6399886065       -5.5963985321       -3.3258222706
 H        -5.2802932510       -6.4280877212       -3.5837042925
 H        -4.1538777074       -1.0935717815       -6.0445563475
 H        -4.4557466489       -1.0667444495       -4.2399767625
 H        -6.1329609655       -4.4797845823       -6.6050976842
 H        -6.8525400013       -5.3402137716       -5.2283648560
 H        -5.1995659960       -5.6040993267       -5.6907288488
 H        -7.7217739829       -2.7649376436       -4.4875617068
 H        -6.3854508847       -1.7058426934       -4.0196396173
 H        -6.6878144859       -2.1499697621       -5.7196753972
 H        -2.1210061006       -0.3252210692       -5.0856958400
 H        -1.8435853806       -1.8824316912       -5.6854393184
 H         2.3290800639       -2.4977775902       -2.5581992383
 H         2.6170960230       -1.2472553458       -1.5478869667
 H        -0.7330463952       -3.5559034768       -4.2743341405
 H         0.4131266049       -3.8849829608       -2.9802246378
 H         0.9746058945       -3.3415705894       -4.6232865640
 H         0.2162317508       -1.2552465338       -5.4446277869
 H         0.2539795280        0.2539404615       -4.4630345420
 H         1.6443337772       -0.7161865658       -4.5712344123
 H         2.9420191835       -2.8348352037       -0.1038528500
 H         1.4327263493       -2.0839105179        0.4032662185
 H         4.4442385146       -4.7900619959       -1.4611181405
 H         5.4759663612       -4.6604672092        0.0247299542
 H         5.1102185477       -6.2337799165       -0.8070750180
 H         1.5812849060       -6.1558320702        1.4690138139
 H         1.9392938738       -7.4544787554        0.3216496822
 H         0.4177156640       -6.8038346487        0.1823569978
 H         2.8835888913       -6.5732876757       -1.9678473130
 H         1.1501981468       -6.2247498273       -2.1917788767
 H         2.4291948393       -4.9881749672       -2.5321936871
 Na       -1.9078965347       -2.6997418638       -0.1229676246
