155

 C         7.3325126614       12.3987856839        0.9189606775
 C         6.5122815805       11.0554083120        0.9961098585
 C         5.8294520007       10.5085648639       -0.3449270076
 C         5.8578724413        8.9623650378       -0.2660051310
 C         4.8154426268        8.4020041883        0.7987497176
 C         4.4342283107       11.1378404541       -0.5078284899
 C         6.6110813794       10.7561945136       -1.6058311348
 O         6.2458526344       10.5318203117        2.0709574910
 O         6.6186504101        8.3830238757       -1.0320201183
 C         4.7423429848        6.8275245480        0.7955432000
 C         3.3019873370        6.2529710313        1.0336036415
 C         3.0750071062        5.1968766319        2.2754124461
 C         3.6009869894        3.7750033939        1.9498809059
 C         2.7670148235        2.5957256905        1.4746619279
 O         2.3980531703        6.5950319132        0.3255742581
 O         4.7886363395        3.5903892805        1.9024904581
 C         3.7986064825        5.7062720126        3.6021232166
 C         1.5837289227        5.0973640400        2.6293322345
 C         2.1094993198        1.8590704202        2.6545523568
 C         1.5065781738        0.6094271239        2.1211663206
 C         0.4625623830       -0.2530009739        2.9973105734
 C        -0.6582208449       -0.6376435198        2.0297906551
 C        -1.6138391819        0.5748606934        1.4708695190
 C         1.1939814001       -1.4212804121        3.5708333063
 C        -0.1072051829        0.6528281625        4.1098683243
 O         2.0338234776        0.1004622073        1.1251815635
 O        -0.8738862652       -1.7726406283        1.6326129268
 C        -2.8874721579        0.4734232513        2.4259754958
 C        -4.1791086777        0.9872715352        1.7291104953
 C        -5.5566587475        0.9273473086        2.7844887275
 C        -5.7151749016       -0.6545203468        2.7717248936
 C        -6.5049867357       -1.4000428816        1.7069795639
 O        -4.2902443430        1.1563144736        0.5570193686
 O        -4.9964920276       -1.3158803754        3.5748766463
 C        -5.2274696939        1.3008744738        4.2052942456
 C        -6.7842071048        1.7275169937        2.1659344813
 C        -6.2442352159       -2.9531029853        1.6385117352
 C        -4.8550488128       -3.3295616105        0.9121808444
 C        -4.5751302314       -4.9937834662        0.8730527472
 C        -4.0707193211       -5.3187233269       -0.5608352249
 C        -4.8316067451       -6.0325697983       -1.6040285684
 C        -3.4238503194       -5.4437231199        1.8624266863
 C        -5.8854672471       -5.8183591357        1.2701198302
 O        -3.8995985661       -2.6252652904        0.7115386791
 O        -2.9983435944       -4.8133337228       -0.8177031596
 C        -4.3891377370       -5.4191988516       -2.9988497751
 C        -5.3922145637       -4.2494568491       -3.2436766064
 C        -5.4943618275       -3.7906731196       -4.7744732428
 C        -4.0326790760       -3.1439093365       -5.1623803609
 C        -3.9628432641       -1.6797652861       -4.7634258143
 O        -6.0179601714       -3.6524331169       -2.3762160894
 O        -3.1272601349       -3.8219603986       -5.5599907869
 C        -5.8321276626       -4.9924176911       -5.7102167159
 C        -6.7152880737       -2.8526571204       -4.8449329376
 C        -2.4498860362       -1.1621311817       -4.7509386371
 C        -1.7234653390       -1.8319001913       -3.4851451790
 C        -0.1031401376       -1.9556216608       -3.5217971869
 C         0.4255750447       -1.6743002470       -2.1271083156
 C         1.8329676942       -2.0859891713       -1.7332432783
 C         0.1604936549       -3.3405499632       -4.1282072043
 C         0.6023285829       -0.8228796184       -4.4242782239
 O        -2.4692847697       -2.1878841236       -2.6597269351
 O        -0.1504435378       -0.9367324922       -1.3739775596
 C         1.9291546264       -2.8530102603       -0.4416809747
 C         1.2145553177       -4.1804128040       -0.2981523213
 C         2.1381811554       -5.4716622090       -0.3155149909
 C         3.5571380654       -5.3196822765        0.4805547870
 C         4.8937713818       -4.9867727884       -0.2743242308
 O         0.0161842069       -4.2976975673       -0.2901965434
 O         3.5150518055       -5.2756767944        1.6660843718
 C         1.3579930177       -6.6627078872        0.2352265410
 C         2.4715879299       -5.7359992932       -1.8274326581
 H         7.5129998984       12.6942508887        1.9883291553
 H         8.2474247743       12.2335417384        0.3088949252
 H         6.6669192441       13.2428551593        0.5765105776
 H         5.1689330006        8.6962874815        1.8030012341
 H         3.9240176264        9.0241093078        0.4655030871
 H         3.8438101335       10.6905690017       -1.3348113218
 H         4.4542480117       12.1601129794       -0.7175449553
 H         3.9195268599       11.1157732570        0.4501510950
 H         7.6491286455       10.7192509741       -1.4288376452
 H         6.3301323657       10.0549557447       -2.3740199028
 H         6.5158970001       11.7590970396       -1.9948401985
 H         5.1469409377        6.4404613820       -0.1427432477
 H         5.4162638153        6.4814516438        1.6773425726
 H         1.9082964090        2.9686998486        0.8388430697
 H         3.3667527780        2.0207006073        0.8458186322
 H         4.8834570591        5.7044004894        3.4499015916
 H         3.5780826313        4.9253152244        4.3000601247
 H         3.3361059751        6.5856508181        3.9002139327
 H         1.3663927263        4.4574633097        3.4075833715
 H         1.3959443046        6.0367268121        3.0567687578
 H         1.0331809149        4.9387898193        1.7362685190
 H         1.3703581815        2.5208722511        3.1026415257
 H         2.8514900247        1.5575130383        3.3245559313
 H        -0.9834880939        1.4811299966        1.3176288258
 H        -1.8290481724        0.2102942026        0.4428741957
 H         1.9533322425       -1.1870825591        4.3396481683
 H         1.7194201229       -2.0982877681        2.8508368216
 H         0.5012775024       -2.1400592496        4.0114262086
 H        -0.6416916707        1.5141384074        3.6086406829
 H        -0.8179416693        0.2196787577        4.7732314815
 H         0.7095916749        1.0920820272        4.6082902492
 H        -3.1076854477       -0.6279393463        2.4699082658
 H        -2.7335283911        0.8186019323        3.4289865933
 H        -7.5564417070       -1.3604474857        1.8098565287
 H        -6.3277801918       -1.0434849525        0.6985586672
 H        -4.3061569937        0.9224594944        4.6644658882
 H        -5.9649565917        0.7976378837        4.7375405248
 H        -5.2237513289        2.4307514783        4.4223824678
 H        -6.4800118548        2.7701163448        2.1470471700
 H        -6.9830663733        1.5818416777        1.1429710542
 H        -7.6254261780        1.6707642454        2.7976025640
 H        -6.9797382088       -3.4410583646        1.0346925170
 H        -6.1419713698       -3.3143086716        2.5744193701
 H        -4.5898029225       -7.1379322178       -1.5647705726
 H        -6.0230955317       -6.0398746034       -1.6883752952
 H        -3.4804286403       -4.7890998940        2.7592707223
 H        -2.4555688478       -5.3062891294        1.4407871758
 H        -3.5895354631       -6.3716425927        2.3392539158
 H        -5.6738757293       -6.9310589806        1.2520676710
 H        -6.2238468359       -5.5295374259        2.2379933598
 H        -6.6631691739       -5.5883653926        0.4805656175
 H        -3.4089573368       -5.1214688864       -2.8930358166
 H        -4.4956944549       -6.1553032121       -3.7823560647
 H        -4.4593631522       -1.1033342369       -5.5229094345
 H        -4.4879690182       -1.7448671172       -3.8199142087
 H        -6.1407305029       -4.6868610998       -6.7461645451
 H        -6.5073565391       -5.7455451789       -5.3332710268
 H        -4.9592594634       -5.5477867254       -5.9362871219
 H        -7.5715735863       -3.5905234641       -4.7298740617
 H        -6.7673957055       -2.1564061852       -4.0482890546
 H        -6.9331600504       -2.3568844818       -5.8027579389
 H        -2.4680121689       -0.0405502567       -4.5856847906
 H        -1.8888890933       -1.3199311110       -5.7298954961
 H         2.3378248206       -2.6576400888       -2.5792432421
 H         2.4316249496       -1.1927958348       -1.6123341142
 H        -0.4491820466       -3.3414006235       -4.9852932236
 H        -0.0210384822       -4.1103800239       -3.3847097981
 H         1.2202132360       -3.4170272408       -4.4141268348
 H         0.1087834775       -0.9950523049       -5.3975709324
 H         0.5047310395        0.2103844047       -4.0175290475
 H         1.6942272651       -0.9387491014       -4.5515822819
 H         3.0424994924       -2.9640368567       -0.1886863376
 H         1.4013530800       -2.2496441539        0.3150777586
 H         4.7007366296       -4.4352752828       -1.2629794635
 H         5.5696759150       -4.5252197861        0.4394746506
 H         5.4058969132       -5.9453498677       -0.5355778070
 H         1.2606326961       -6.5115061047        1.2580326232
 H         1.6936482113       -7.6377839321       -0.1314154179
 H         0.3483440315       -6.6778684213       -0.2014808603
 H         3.1130922163       -6.6716595134       -1.9069926789
 H         1.5602331172       -5.7867027475       -2.3905375559
 H         3.0255351855       -4.9361175988       -2.2104139934
 Na       -1.7675148466       -2.7647006734       -0.3910147619
