155

 C         7.4510661799       12.4810540309        0.8603028329
 C         6.6228602974       11.1395533031        1.0062195778
 C         5.9062356489       10.5292220733       -0.3008818804
 C         5.7408384144        8.9487674312       -0.2781823811
 C         4.7541298514        8.2304024524        0.7977164506
 C         4.4981988541       11.2156145837       -0.3096933408
 C         6.7959800114       11.1560022283       -1.4758952449
 O         6.3362776047       10.7586672165        2.0802843174
 O         6.3715590246        8.3062754925       -1.0606130541
 C         4.7662472066        6.7164216336        0.6669810205
 C         3.4429798290        6.2066634006        1.1739826236
 C         3.0696336609        5.3032013156        2.5094658556
 C         3.5867045011        3.9050595242        2.0417483687
 C         2.6042121003        2.9018785029        1.4610776789
 O         2.4487801748        6.5717759110        0.5776520435
 O         4.7669322262        3.5964015711        2.1054828011
 C         3.7860773310        5.6248900195        3.7944780313
 C         1.5166932977        5.4342360686        2.6288662299
 C         2.0798534666        1.9814432822        2.6069287444
 C         1.4539330786        0.6277206786        2.1513152631
 C         0.3745109092       -0.1550438848        2.9527881980
 C        -0.7330850148       -0.6242652789        1.9410684677
 C        -1.7987435630        0.4055456359        1.4120794396
 C         1.0970735569       -1.4247630553        3.5587514712
 C        -0.1522224739        0.6343221872        4.1858772084
 O         1.9124381092        0.0711272707        1.1744637573
 O        -0.7201707965       -1.8195538384        1.6022804438
 C        -2.8402265579        0.8258414564        2.3502203811
 C        -4.2740420892        0.9026652768        1.7271279058
 C        -5.5195148748        0.7888003850        2.6357985753
 C        -5.6167369522       -0.7639661858        2.8000641861
 C        -6.2492142507       -1.3703905553        1.5827303084
 O        -4.5431379745        1.1826402492        0.5546163121
 O        -5.3964405547       -1.3064130958        3.8543642690
 C        -5.2110393642        1.5266471682        3.9932031820
 C        -6.8271631971        1.4331893283        2.0465469638
 C        -6.2068640088       -2.9233210910        1.5016222632
 C        -4.7880489344       -3.3964971655        1.0234161288
 C        -4.5669911857       -4.9261116376        0.9186748342
 C        -3.9329199034       -5.2362156880       -0.4710190837
 C        -4.6411140445       -6.0527389498       -1.5835270425
 C        -3.5045018545       -5.3618217919        2.0418365587
 C        -5.8574694672       -5.7515902718        1.1310466956
 O        -3.8278443549       -2.6150256237        0.8979844798
 O        -2.7463512851       -4.9908232879       -0.6958892672
 C        -4.4221985378       -5.5901965816       -3.0657080462
 C        -5.4484373343       -4.4162143815       -3.4532786331
 C        -5.4434519282       -3.9017785428       -4.9146722179
 C        -4.1210978794       -3.0890665468       -5.0736597732
 C        -4.0589222391       -1.6106593485       -4.6073996716
 O        -6.1055847294       -3.8532798390       -2.6235747618
 O        -3.1346742585       -3.6204550890       -5.5761693735
 C        -5.3764220821       -5.1046935157       -5.9460094475
 C        -6.5931876672       -2.8924486734       -5.2125367426
 C        -2.6165080357       -1.2216305503       -4.6202070581
 C        -1.7843168993       -1.8557924819       -3.5363195211
 C        -0.1699490459       -1.9393780806       -3.6059402454
 C         0.3405134118       -1.8321913589       -2.1571747015
 C         1.7047154681       -2.3198108039       -1.8353656562
 C         0.0233318588       -3.4033828941       -4.2914101107
 C         0.3884294655       -0.8374865755       -4.5155533609
 O        -2.3837009401       -2.3849399089       -2.5461211404
 O        -0.2344935489       -1.0649369497       -1.3726258502
 C         1.8891525116       -2.7607388994       -0.3850117656
 C         1.3896540869       -4.2193819103       -0.3444695370
 C         2.3288197714       -5.4422831154       -0.4155135100
 C         3.4933223781       -5.2544553237        0.5770262128
 C         4.8333637023       -4.8617224645       -0.0046962144
 O         0.1650749075       -4.3706734902       -0.3903241348
 O         3.2037146802       -5.3215212087        1.7969602037
 C         1.5247948676       -6.7189931083        0.0820636159
 C         2.7981838367       -5.7309273178       -1.8825321470
 H         7.4620461879       12.9096518521        1.8044629669
 H         8.4411592297       12.3073909945        0.5130228378
 H         6.9190562989       13.1361658713        0.2076431478
 H         5.1719914067        8.4631180453        1.7949419902
 H         3.8176848790        8.7079327150        0.6488123796
 H         3.9342719455       10.6657484747       -1.0476681732
 H         4.5492600562       12.2685456554       -0.7943149398
 H         3.9351571337       11.3681347551        0.6371899300
 H         7.8660351697       10.8755074450       -1.5925427400
 H         6.3215470611       10.8964165861       -2.4195906380
 H         6.8401819978       12.2234084502       -1.4148235243
 H         4.7021714367        6.4764124536       -0.4257427376
 H         5.6177865773        6.2005729672        1.0108325879
 H         1.7802257148        3.4125912450        1.0591264563
 H         3.1584614398        2.2749368948        0.6918501477
 H         4.8213787891        5.3454658409        3.6300900611
 H         3.4318970201        5.0499842980        4.6837680342
 H         3.4872844122        6.7263801644        3.9244862239
 H         1.2247107428        4.5788711168        3.2828781754
 H         1.2325946510        6.4091557153        3.0475307465
 H         1.1127634483        5.1608024753        1.6411559585
 H         1.3296071254        2.5770629773        3.1815045094
 H         2.9840722498        1.7488447812        3.2406572983
 H        -1.1525329974        1.0828720017        0.8895645168
 H        -2.2598997447       -0.1337778344        0.5902416564
 H         2.1575609935       -1.2956182003        3.7883598030
 H         1.0804478366       -2.2519501512        2.8381594346
 H         0.6591221870       -1.9338704383        4.4279874802
 H        -0.5642521886        1.5759331214        4.0032912124
 H        -0.9898486531        0.0341478872        4.5243117672
 H         0.6237722325        0.7987570695        4.9788436441
 H        -2.9597547778        0.0382648758        3.0746750495
 H        -2.6082204257        1.8077227155        2.8283931898
 H        -7.3151855177       -1.1858258300        1.3655089570
 H        -5.7017669622       -1.0829458081        0.6718565074
 H        -4.3221189876        1.1524691483        4.3953767574
 H        -6.0528279550        1.5832139862        4.7049452785
 H        -4.8229454421        2.5537027927        3.6496850579
 H        -6.7946907220        2.5298034488        1.9405365214
 H        -7.0177903102        1.0669321834        1.0132663727
 H        -7.6467711985        1.1286073075        2.7109140309
 H        -6.9176607744       -3.2430208004        0.7114661229
 H        -6.3094317789       -3.3426379538        2.5853857290
 H        -4.3414591262       -7.0502903027       -1.3695822125
 H        -5.6778650542       -5.9885613065       -1.5600276496
 H        -3.9134549302       -5.5885549372        3.0013003706
 H        -2.8118461498       -4.4861720237        2.1988554720
 H        -2.9375351203       -6.3103355518        1.7959895048
 H        -5.7413659841       -6.7983582009        1.0656769598
 H        -5.9833046546       -5.6143434570        2.2424435505
 H        -6.6654803402       -5.4244019558        0.5377768316
 H        -3.3697023879       -5.1535069771       -3.0875555527
 H        -4.4612240667       -6.4208257999       -3.7690688010
 H        -4.5245328618       -0.9607185170       -5.3800964653
 H        -4.4637053827       -1.6027543590       -3.5786804885
 H        -5.9159500953       -4.9788324823       -6.8303289406
 H        -5.8617873631       -5.9949386548       -5.4982202959
 H        -4.3940526996       -5.5067443594       -6.2877982755
 H        -7.5737105349       -3.2924850422       -5.1323638580
 H        -6.4303064336       -2.0475245564       -4.5008508951
 H        -6.5142063276       -2.4805599873       -6.1888597823
 H        -2.5689390759       -0.1587918750       -4.4860061816
 H        -2.0539119282       -1.4328315333       -5.5053917926
 H         2.1023686521       -3.0725086290       -2.5235818839
 H         2.1772092303       -1.2968029883       -2.0984919319
 H        -0.0082129298       -3.1981252662       -5.3915621879
 H        -0.7972020311       -4.0287668683       -3.8769793644
 H         0.8817389392       -4.0020985521       -3.9196731535
 H         0.0110151177       -0.8548057522       -5.5303788548
 H         0.1187098196        0.0501970958       -3.9997731052
 H         1.4648015168       -0.8143262840       -4.5302880958
 H         2.9215669775       -2.8153753551       -0.2042258646
 H         1.3508333208       -2.0708650204        0.2924673270
 H         4.6161252909       -3.9321205367       -0.5042659670
 H         5.5912271390       -4.7478797849        0.7670137426
 H         5.2716947710       -5.5956080724       -0.6720827136
 H         1.1509132819       -6.6215673037        1.1582550225
 H         2.0565187737       -7.6007928228       -0.2476368713
 H         0.6223168112       -6.8348076622       -0.5184471157
 H         3.3631024299       -6.6352935964       -1.9400230423
 H         1.8337726799       -5.8508020373       -2.3904433425
 H         3.3171653526       -4.8424108710       -2.3651981551
 Na       -1.6897719082       -2.8693680164       -0.4084233864
