155

 C         7.5563566495       12.4026431415        1.0741905555
 C         6.6471049828       11.1766443389        1.1054514046
 C         5.9522371530       10.5560827832       -0.2874549548
 C         5.8104193414        8.9848689726       -0.1643740711
 C         4.8859081538        8.4669269295        0.9587382607
 C         4.4772454972       11.2026862844       -0.2391859899
 C         6.6057032980       10.7737140535       -1.6584747536
 O         6.3406473637       10.6699036267        2.2243278264
 O         6.2638578835        8.3970889718       -1.1233704357
 C         4.8178595298        6.9853871686        1.0787181910
 C         3.3006727943        6.4739107934        1.2498201846
 C         3.0834726822        5.5253603862        2.4238578584
 C         3.5369955776        3.9760996805        2.0696788240
 C         2.5433191069        2.9095985687        1.5330494214
 O         2.4095114225        6.7687607305        0.4641200466
 O         4.6626047412        3.5989160901        2.2613770798
 C         4.0510078282        5.9983299826        3.5660974052
 C         1.5900176821        5.5903143979        2.9800286412
 C         1.9088337612        1.9573481840        2.6089213305
 C         1.4392365926        0.5706089493        2.0536061331
 C         0.2777079699       -0.1420684763        2.9193990454
 C        -0.7742964416       -0.6670134867        1.9127773495
 C        -1.8723407677        0.2542156162        1.2751200548
 C         1.0148027825       -1.3732548877        3.5259151238
 C        -0.3251245483        0.6534048153        4.1050999436
 O         1.7157909711        0.0329352594        1.0385678052
 O        -0.5779737147       -1.7617413038        1.5142293364
 C        -2.8216861385        0.9721870174        2.3305790490
 C        -4.2607996139        1.0065711896        1.6159143591
 C        -5.4453143434        0.7894225752        2.5905692746
 C        -5.6925806891       -0.7239470156        2.7969730594
 C        -6.1296801274       -1.3901914342        1.5142021020
 O        -4.3997138612        1.1783815684        0.4447559266
 O        -5.7941283297       -1.3302153104        3.8454369775
 C        -5.3551016097        1.5907519881        4.0576947811
 C        -6.7275618929        1.4281730432        1.9236960575
 C        -6.0979915000       -2.9550683698        1.5111742023
 C        -4.6500847950       -3.4438568065        1.1084471654
 C        -4.4344919090       -5.0123510837        0.9488325484
 C        -3.8084380683       -5.2635356483       -0.5809472125
 C        -4.6439566415       -5.9584809121       -1.5610205534
 C        -3.4098668593       -5.3357768209        2.0940378653
 C        -5.7794707707       -5.7973268488        1.0273978608
 O        -3.7431143734       -2.7294085737        0.8179309769
 O        -2.6553559933       -4.9897773130       -0.7792728358
 C        -4.4736579766       -5.6145255154       -3.0386787234
 C        -5.4276558685       -4.5188276868       -3.4843735978
 C        -5.3089089507       -3.9598550005       -5.0514501130
 C        -4.0403774776       -3.1115611614       -5.1889071657
 C        -4.1564380104       -1.5986266805       -4.6434895193
 O        -6.3083019324       -3.9825289970       -2.8255732677
 O        -2.9735995883       -3.5371183039       -5.5339785581
 C        -5.1507664800       -5.1318697811       -5.9936667345
 C        -6.6776035645       -3.3499509693       -5.3917649650
 C        -2.7264324251       -0.9625698291       -4.4941988334
 C        -1.8538816485       -1.8656952699       -3.4214056392
 C        -0.2960697196       -1.9689654727       -3.6320146694
 C         0.3531649919       -1.8814253021       -2.2670089742
 C         1.8229207661       -2.1555484616       -1.9901624578
 C        -0.0280095786       -3.3830746377       -4.3008883702
 C         0.2577899728       -0.8124745269       -4.6457760972
 O        -2.4893644998       -2.4446913637       -2.6073991065
 O        -0.2360473690       -1.4139004423       -1.3010827197
 C         1.9099786950       -2.8861850059       -0.6621038512
 C         1.2955945623       -4.2668401567       -0.5548799558
 C         2.4337727536       -5.5243961021       -0.4530825911
 C         3.4440426514       -5.1586152538        0.7626024815
 C         4.9064455383       -4.7822541913        0.4404554347
 O         0.1376357434       -4.5677782801       -0.3792803796
 O         3.1093021058       -5.2656818186        1.8859976994
 C         1.6445305808       -6.8005279525       -0.0873277669
 C         3.0490568125       -5.5483417079       -1.8607344117
 H         7.9961049732       12.5231666737        2.1433476272
 H         8.4277742983       12.2121876942        0.4210481568
 H         6.9538991158       13.2268954599        0.6435741815
 H         5.1337925248        9.0288944936        1.8246560778
 H         3.9294134705        8.8922899298        0.5823653449
 H         3.8818677103       10.9870602315       -1.1499423363
 H         4.5175794608       12.2302034973       -0.1400608823
 H         3.9447146164       10.8058474820        0.6101417390
 H         7.5803550226       10.3313662423       -1.7382678078
 H         6.0283247582       10.2749401497       -2.4499542669
 H         6.8255301335       11.8606679939       -1.8384887093
 H         5.2798773086        6.4806913659        0.2355059634
 H         5.3946865724        6.4653304841        1.8956292084
 H         1.6776629286        3.2777807065        0.8674586210
 H         3.2150523890        2.2232179684        1.0451447563
 H         4.9711799392        5.4374304070        3.4066448781
 H         3.6775761494        5.4045794352        4.3883704870
 H         3.9971227523        7.0006738896        3.7914770888
 H         1.5251740637        5.0682032970        3.9702525929
 H         1.5475108171        6.6975695901        3.0650471713
 H         0.8518578083        5.1400038776        2.3023869910
 H         0.9753155473        2.3705597763        2.9975948520
 H         2.6184905417        1.8032637555        3.4268509885
 H        -1.3070336332        0.9910199201        0.6571832776
 H        -2.3381919189       -0.3144750437        0.4757265667
 H         1.7793100885       -1.1324818771        4.2227134787
 H         1.4252527668       -2.0596279903        2.8478490358
 H         0.3162631638       -1.9488480000        4.1038532398
 H        -0.7313119521        1.6812112727        3.8070709520
 H        -1.1535047297        0.1141905434        4.5886767040
 H         0.4360182403        0.8809314095        4.8004587868
 H        -2.9375443749        0.6287403753        3.3847556944
 H        -2.4983536047        1.9869720158        2.2397436918
 H        -7.2128463886       -1.2578975676        1.5186954692
 H        -5.8266814547       -1.0776041224        0.5274223945
 H        -4.8418077212        0.8896100991        4.8213901564
 H        -6.4618682344        1.8226819807        4.2331941502
 H        -4.7763137749        2.4296254555        4.0911147408
 H        -6.7081110222        2.4994945482        2.1505202186
 H        -6.5970345449        1.3313117249        0.8377580495
 H        -7.7163147154        0.9579871312        2.1806662481
 H        -6.7258751411       -3.3271532496        0.6999663710
 H        -6.2517380296       -3.2685228071        2.4922889854
 H        -4.3653846458       -7.0788588250       -1.3769044952
 H        -5.7809326200       -5.7714516033       -1.4759753382
 H        -3.9357450802       -5.8694727810        2.9495133275
 H        -2.9510916952       -4.5161540033        2.5854772965
 H        -2.6812173846       -6.0298241955        1.7829212223
 H        -5.5616552149       -6.8751810344        0.9252487986
 H        -6.3688717133       -5.7690296209        1.8754532033
 H        -6.3131004115       -5.5182721231        0.1109942912
 H        -3.4455314608       -5.3626567820       -3.2482624172
 H        -4.7196067867       -6.5489079598       -3.6342601870
 H        -4.7205482222       -1.1437661822       -5.4243564710
 H        -4.6046799446       -1.6560145088       -3.6598804440
 H        -5.0727234921       -4.8036974964       -7.0921098288
 H        -5.9477926594       -5.8510395090       -6.1011246435
 H        -4.2671801295       -5.7008948847       -5.8382029165
 H        -7.3725129106       -4.1815441646       -5.5474913407
 H        -7.0310327869       -2.7180363083       -4.6275818577
 H        -6.6574085023       -2.7643623230       -6.3610367546
 H        -2.7377464060        0.1030532820       -4.1395339537
 H        -2.1319410961       -0.9542879480       -5.4055833579
 H         2.2633052464       -2.7408500730       -2.7846460087
 H         2.2491752370       -1.1995034327       -1.8490891171
 H        -0.4143855716       -3.4078040150       -5.2948126203
 H        -0.3513407378       -4.1151176011       -3.6376523507
 H         1.0003246352       -3.5583757730       -4.2233259957
 H        -0.0957435787       -1.0155006831       -5.6499879590
 H        -0.1592030295        0.1990349316       -4.3588429857
 H         1.3544241380       -0.8578851429       -4.7184369062
 H         2.9886589622       -3.0232396990       -0.3947434091
 H         1.4058839835       -2.2203768022        0.0141215399
 H         5.1141499622       -3.7357572330        0.1311518676
 H         5.5402676117       -5.0290300242        1.3002614455
 H         5.2559559215       -5.5291329001       -0.2762333869
 H         1.1284841993       -6.6131541933        0.7846516926
 H         2.3212903273       -7.6508881086       -0.0660375385
 H         0.8450414324       -7.0411423647       -0.8220787659
 H         3.7591219600       -6.3945676601       -1.8496997381
 H         2.2988647910       -5.6997106211       -2.6486785862
 H         3.5628685420       -4.6256851865       -1.9802095076
 Na       -1.6741879570       -3.0036975381        0.0485082621
