155

 C         8.3479433546       10.7815938224        0.9314150261
 C         6.8989031810       10.9975804568        1.2647831825
 C         5.7975350777       10.7770239143       -0.0249344189
 C         5.6501283168        9.1905864462        0.0532801482
 C         4.3339068649        8.7217680088        0.7589698393
 C         4.4613202843       11.5400986477        0.2201776705
 C         6.3883289657       11.2977114496       -1.4723581939
 O         6.4929651452       11.1341818859        2.3626644701
 O         6.5682962909        8.4489612031       -0.2886729966
 C         4.4231083290        7.2545696797        1.1956969614
 C         3.1079576797        6.6081615541        1.8639559259
 C         3.1811104900        5.9030262931        3.1632895693
 C         3.5551437519        4.3233292121        2.7874509541
 C         2.3940510111        3.6442090350        1.9932792979
 O         2.1162662152        6.5703791047        1.2112072742
 O         4.4861205171        3.7228923575        3.2444689229
 C         4.2845230587        6.4648843738        4.2119714009
 C         1.8670477538        5.8599962952        3.8660641036
 C         1.8124804929        2.5588677865        2.8961806149
 C         1.1142540741        1.4882683186        2.0402438741
 C         0.5272050949        0.2257837271        2.8222652352
 C        -0.4495599446       -0.6630636093        1.9430446693
 C        -1.6762336238        0.0834355360        1.3054834712
 C         1.7386329975       -0.7547618671        3.0225607688
 C        -0.2852393963        0.3945131576        4.1672930974
 O         0.9009049150        1.5922182845        0.8158009919
 O        -0.2374324642       -1.8429118515        1.6909262735
 C        -2.9240480690        0.1114757683        2.1869948467
 C        -4.1411484317        0.5908883167        1.2999524747
 C        -5.7298465532        0.4232876862        1.7234411028
 C        -5.9950382279       -1.0719795990        1.7159470978
 C        -6.2591043199       -1.8567974687        0.4084317002
 O        -3.9546968781        1.2783463694        0.3281097972
 O        -5.7563703106       -1.7855247522        2.6819685093
 C        -6.0104462185        1.1163834205        3.0096477912
 C        -6.5490507216        1.0446421612        0.5842817435
 C        -6.1899701317       -3.2960626472        0.7494938694
 C        -4.7383547105       -3.6576555982        0.8631502659
 C        -4.2721299986       -5.2204830437        0.8650464045
 C        -3.8967336406       -5.4631513937       -0.7807880682
 C        -5.1124004952       -6.1551241933       -1.6063466457
 C        -2.8939397417       -5.2878694121        1.6411708966
 C        -5.2614236431       -6.1674911980        1.5083694580
 O        -3.8847193695       -2.8277061384        0.7128737463
 O        -2.8917685926       -5.0330244626       -1.2811868691
 C        -4.8053176734       -6.1734584539       -3.0947813708
 C        -5.6531127827       -5.1698976413       -3.9232079711
 C        -5.1817538416       -4.8615275445       -5.4028178465
 C        -4.1869788081       -3.6312998938       -5.4102385060
 C        -4.2537443459       -2.5488722497       -4.3662185749
 O        -6.7036538831       -4.7769078808       -3.5244123595
 O        -3.4254311015       -3.4432389327       -6.3776138426
 C        -4.5590717613       -6.0643590778       -6.0973196713
 C        -6.4151659974       -4.3787198228       -6.2731950577
 C        -3.0216952000       -1.5534038265       -4.3175167768
 C        -2.1143344196       -1.8585529105       -3.0602678683
 C        -0.5477221063       -1.8926258783       -3.3415023858
 C         0.3288631913       -1.4799798480       -2.0634425498
 C         1.8532888957       -1.6354384073       -2.0603431509
 C        -0.2932745658       -3.3679590222       -3.7523317193
 C        -0.0844209499       -1.0000794399       -4.4649538893
 O        -2.6279432135       -2.1563108765       -2.0485593973
 O        -0.2627924682       -0.9711765148       -1.1380899147
 C         2.1133426958       -2.2822415106       -0.6181212940
 C         1.8096643365       -3.7585706109       -0.4200353863
 C         2.9673047107       -4.7344814653       -0.2510576798
 C         3.0206192616       -4.9601048418        1.3611711971
 C         4.2493700663       -5.3669403469        2.0177033070
 O         0.6703111599       -4.1496291153       -0.4336898301
 O         2.0056450778       -4.8138516661        1.9335743939
 C         2.6572542145       -6.1095244430       -0.9464134736
 C         4.3595855902       -4.1606006389       -0.7097578748
 H         8.7420765056       10.1972725454        1.7022137134
 H         8.3907007285       10.1300591271        0.0282511200
 H         9.0967449375       11.6168821869        0.8407377941
 H         3.9425270055        9.4350112972        1.4545655422
 H         3.6619086641        8.7150889600       -0.1390074796
 H         3.7437790320       11.4199274584       -0.5566389179
 H         4.6986774246       12.6369354320        0.2050641417
 H         4.0762851323       11.2946745773        1.1934046855
 H         7.1457305663       10.6429650002       -1.8910324678
 H         5.6466716444       11.3332971563       -2.2329410261
 H         6.8997862480       12.2565328007       -1.4265728111
 H         4.7034303182        6.6025555391        0.3176629704
 H         5.1296593071        7.2080779740        1.9841918462
 H         1.7237474666        4.3641808191        1.6775214749
 H         2.7059582663        3.1942106010        1.0545264348
 H         5.2758763432        6.6175530549        3.8721394332
 H         4.3387412923        5.8115638679        5.1101505759
 H         3.9124843385        7.4660583074        4.5661384342
 H         1.8185995835        5.0405830379        4.5382138272
 H         1.6780385734        6.6845615662        4.4707211024
 H         1.0242969554        5.7074270197        3.1902994837
 H         1.1585750851        2.9128512711        3.6408797669
 H         2.6477428267        2.0335750210        3.4784671502
 H        -1.4672993489        1.1425224575        1.0232673282
 H        -1.7748014698       -0.4715905718        0.4319936774
 H         1.9395399459       -0.7946994963        4.1296303278
 H         2.6356432755       -0.3016450170        2.4425415517
 H         1.5367214156       -1.7930025906        2.6362497558
 H        -1.2081383885        0.8713454646        4.0386525021
 H        -0.5332780747       -0.6551979377        4.4403316956
 H         0.2264511309        0.8818151828        4.9737085519
 H        -3.1885520791       -0.7982198275        2.8043541663
 H        -2.8657039085        0.9086808471        2.9015378612
 H        -7.1773704659       -1.6209917114       -0.2313673747
 H        -5.4878262697       -1.5134497298       -0.2616851936
 H        -5.2344502468        0.7599711343        3.8452796181
 H        -6.9846548962        0.8107567223        3.3872881151
 H        -5.9411157052        2.2443128961        2.8738546440
 H        -6.2448867447        2.0568546248        0.4877311107
 H        -6.4033790154        0.6794336438       -0.4161859392
 H        -7.5313647109        1.1027270133        1.0489586297
 H        -6.6093762492       -4.0091510529        0.0174988697
 H        -6.7129799907       -3.5755360339        1.7530376459
 H        -5.0224275697       -7.2468031438       -1.2562402032
 H        -5.9464247795       -5.6462255931       -1.1900079796
 H        -2.9415906833       -5.8044581541        2.5455856325
 H        -2.4717590808       -4.3056387146        1.8151442342
 H        -2.1860357019       -5.9596359040        1.1847699339
 H        -5.0970691110       -7.2247929706        1.4031266979
 H        -5.1246670730       -6.0461335014        2.6287917896
 H        -6.2477519532       -5.9746806156        1.1417864313
 H        -3.7919562934       -6.1974759603       -3.3701161231
 H        -5.0825833138       -7.1884892203       -3.4346564389
 H        -5.1767080852       -1.9728569895       -4.3239564464
 H        -4.4414388474       -3.0715096793       -3.3713864298
 H        -4.3904564939       -5.9821990395       -7.1161042315
 H        -5.1638189567       -6.9454564038       -5.9069498384
 H        -3.5598311200       -6.3970761874       -5.7210231840
 H        -7.1916625159       -5.0972712305       -6.3739378302
 H        -6.7528592829       -3.4336987311       -5.7483804578
 H        -6.0814967872       -4.1618567018       -7.2848928199
 H        -3.3560479749       -0.5684113154       -4.0762190801
 H        -2.5445615064       -1.5149929811       -5.2559707736
 H         2.4940698569       -2.1159931668       -2.8681868608
 H         2.3157308120       -0.6070416336       -2.0474723436
 H        -1.0664084611       -3.6243609313       -4.4712273175
 H        -0.4300533816       -4.0617746597       -2.9338450852
 H         0.6569945370       -3.5961157027       -4.2552388789
 H        -0.1198208322       -1.6476408322       -5.3802274647
 H        -0.5316871159       -0.0105917677       -4.5363562808
 H         0.9999794581       -0.6938476858       -4.3455758486
 H         3.1760317030       -2.0932650474       -0.5200506954
 H         1.6900336784       -1.6715085134        0.2055078386
 H         4.9285895445       -4.6322817695        2.4382075247
 H         3.9867249832       -6.0256489945        2.8620801657
 H         4.9288475946       -5.9218982372        1.3575522711
 H         1.6890987431       -6.4933394699       -0.4668746041
 H         3.4881428390       -6.7665235488       -1.0033624324
 H         2.4357770127       -5.9696415140       -2.0256735703
 H         4.9399223940       -4.9446640079       -1.0188584034
 H         4.0746450901       -3.5512135433       -1.5722199361
 H         4.8212383870       -3.4634170028       -0.0060430576
 Na       -1.5598504393       -3.1976225609       -0.2537972342
