155

 C         8.2360914953        9.8713769565        1.3475587761
 C         6.7818343111        9.8115960344        1.6764403570
 C         5.7402509950        9.6582082810        0.5061441305
 C         4.9943663402        8.3098633826        0.7321751668
 C         3.9347128682        8.2357993186        1.7600464874
 C         4.6799911103       10.8731079697        0.7439708167
 C         6.3330258347        9.8039575350       -0.9551927954
 O         6.3720557183        9.7775446237        2.8078315427
 O         5.2807156855        7.3242009571        0.0972778846
 C         3.5654424891        6.7454721445        2.1145573140
 C         2.5308598632        6.6573830746        3.1462677898
 C         2.7479316438        5.7371159785        4.3622187616
 C         2.6416389919        4.2630601226        3.8556355422
 C         1.3719459713        3.8298273870        3.1304502398
 O         1.3766662875        7.1040873823        2.8971733943
 O         3.6752049905        3.6168410180        3.9769719876
 C         4.1016311538        5.9120032734        5.0566769016
 C         1.5146362195        6.0030893048        5.3694912157
 C         1.3471307501        2.2892091596        2.9084669113
 C         0.1192773421        1.9357820976        2.1182380587
 C        -0.8971922966        0.8259720219        2.5884845306
 C        -1.5457557266        0.1648348199        1.2450218461
 C        -2.7681678352        0.8390028659        0.5502776830
 C        -0.0991281699       -0.3412375430        3.3874835344
 C        -1.8445025668        1.5946109236        3.5613409864
 O        -0.1676599139        2.6620862682        1.1896923897
 O        -0.9040148829       -0.7346338534        0.6977391126
 C        -4.1109340076        0.9609484874        1.3157159710
 C        -5.3389204962        0.7094186874        0.3772032532
 C        -6.5717221284       -0.0664427243        1.0818340483
 C        -6.0672782167       -1.5398891546        1.1715638747
 C        -6.2435812702       -2.4848072274        0.0424939799
 O        -5.3355381719        0.8234873750       -0.8089055897
 O        -5.4918838905       -1.9200136924        2.1415540326
 C        -6.9407385334        0.4125377206        2.5237022976
 C        -7.8055225594        0.0267562694        0.1156594116
 C        -5.4331036590       -3.8183159217        0.0725376056
 C        -3.9370295724       -3.6274924815        0.0893967576
 C        -3.0532982958       -4.7749111247        0.8018493051
 C        -2.3210177072       -5.3847975178       -0.5043087587
 C        -2.8726644362       -6.6892870405       -1.1708652006
 C        -1.9935239373       -4.0687182441        1.8086292167
 C        -3.8392569937       -5.7983089081        1.6187885794
 O        -3.3096157732       -2.6708348159       -0.3242729869
 O        -1.2871008648       -4.8960571358       -0.9008949158
 C        -2.9886252183       -6.7112114049       -2.6657002990
 C        -4.2508990572       -6.0583619494       -3.2186237214
 C        -4.3982818825       -5.7087081111       -4.7718523617
 C        -3.1695450813       -4.8089343934       -5.1397267561
 C        -3.4949645670       -3.2628066890       -5.3173818334
 O        -5.1809996728       -5.7449753655       -2.4497464566
 O        -2.0672377108       -5.2089756537       -5.3342301400
 C        -4.4631140449       -6.9915663422       -5.7295699497
 C        -5.8925625775       -5.0604232997       -4.8449596365
 C        -2.2394149644       -2.3837514638       -5.3910197506
 C        -1.3460016950       -2.3413097398       -4.0608561196
 C         0.1061876148       -1.8246607589       -4.1612102750
 C         0.6129584874       -1.0752389479       -2.8590141928
 C         2.0948388772       -0.7546135928       -2.8645880691
 C         0.8371645889       -3.1117410892       -4.4968823211
 C         0.1457577553       -0.7241581389       -5.3056031401
 O        -1.8626758448       -2.8592390847       -3.0724328907
 O        -0.1401895173       -0.6243777163       -2.0268519770
 C         2.7652441166       -1.0078396854       -1.4919262117
 C         2.2998195134       -2.4706995930       -0.9932847432
 C         3.1028294751       -3.3199479801       -0.0090393245
 C         2.1888357092       -3.7637004658        1.1653435433
 C         1.8148934247       -5.2040476471        1.3780599059
 O         1.2559510293       -2.8832115508       -1.4475763184
 O         1.5926655800       -2.8640077556        1.7864412846
 C         3.7251935329       -4.5600251017       -0.7653725219
 C         4.3484818318       -2.5531944450        0.5258664264
 H         8.8914236263        9.8552350073        2.2477239968
 H         8.5807891270        9.1601663815        0.6589685903
 H         8.4197288859       10.7833411732        0.7752953551
 H         4.3661616931        8.6551998545        2.6275285241
 H         3.0472503954        8.9267004019        1.4580468632
 H         3.8352114830       10.6505884085        0.1330250908
 H         5.1460785529       11.7170232041        0.3728136047
 H         4.3028312938       11.0968536812        1.7173660689
 H         7.0980854891        8.9848742526       -1.1718684360
 H         5.5175441317        9.6636920409       -1.6875707946
 H         6.7514859951       10.8092604878       -1.0243876226
 H         3.3972317871        6.2793613531        1.1538621859
 H         4.5402917240        6.4690704546        2.4771766862
 H         0.4990335175        4.1846713795        3.6805500087
 H         1.3824502005        4.2894197757        2.0615110401
 H         4.3128240738        4.9603819221        5.6083472477
 H         4.0404578557        6.7733025042        5.7164895769
 H         4.9069528379        6.0861587108        4.3181339725
 H         1.3748855781        5.2656037996        6.1261400804
 H         1.6780217192        6.9666119341        5.8370985280
 H         0.5700042994        5.9827953851        4.8845928977
 H         1.3893180292        1.7199710777        3.8970255869
 H         2.2957817952        2.0142529541        2.4424818966
 H        -2.2874102960        1.8085916204        0.2867085499
 H        -2.9426763718        0.3117409094       -0.4007763542
 H         0.1448818307       -0.2299127724        4.4904706182
 H         0.8613471933       -0.5817077723        2.9423000908
 H        -0.7497781219       -1.3001874283        3.3871336833
 H        -2.4009407577        2.3708328732        3.1160527239
 H        -2.5954277130        0.8332888646        3.8925849628
 H        -1.3717486507        1.9693199606        4.4822441925
 H        -4.1472450363        0.3651173757        2.2118395174
 H        -4.2105739136        1.9913944113        1.6827449010
 H        -7.2945937026       -2.6308011732       -0.2774496878
 H        -5.9110489286       -1.9187299173       -0.8259477697
 H        -6.0956245800        0.0976378400        3.2197602075
 H        -7.9208756579       -0.0965911495        2.9209971911
 H        -6.9558406054        1.4423198079        2.4891695531
 H        -8.0059810243        1.0940152705       -0.1430198446
 H        -7.6323235266       -0.4368220051       -0.8676747294
 H        -8.6304237450       -0.4497551807        0.5189417297
 H        -5.5706843326       -4.3656232181       -0.7902825222
 H        -5.7793416694       -4.4771142325        0.9059356739
 H        -2.1832727844       -7.4522394968       -0.9351482789
 H        -3.8326438010       -7.0953246618       -0.8666103392
 H        -2.6346735858       -3.5580595420        2.4993477322
 H        -1.3427474039       -3.4328260163        1.2843787718
 H        -1.3593927921       -4.8816237059        2.1223828180
 H        -3.1600620929       -6.4909631425        2.0603868959
 H        -4.4028104303       -5.2289225950        2.4056866450
 H        -4.5855294962       -6.3927887465        1.1283013778
 H        -2.0431500208       -6.3540609712       -3.0650622033
 H        -2.9009323367       -7.8112400611       -2.9471528741
 H        -4.0954577968       -3.2014313560       -6.2227648940
 H        -4.1473429627       -2.8920188498       -4.5748946644
 H        -4.6106796144       -6.5245286915       -6.6907244090
 H        -5.3032198280       -7.6330153041       -5.4854494110
 H        -3.5084244474       -7.4788167590       -5.8077455330
 H        -6.7206897484       -5.6887011661       -4.4224027709
 H        -5.8706658139       -4.1313163294       -4.2341069156
 H        -6.1758728182       -4.7046370256       -5.7972999062
 H        -2.5538834137       -1.4064664951       -5.7924067150
 H        -1.6000212548       -2.6826353350       -6.2679998002
 H         2.5896339264       -1.2018859507       -3.7157477656
 H         2.1320004944        0.3205638115       -3.0079694303
 H         0.4010186002       -3.4804861602       -5.3701750151
 H         0.6806581476       -3.7917455036       -3.7076898508
 H         1.8651804247       -3.0340590206       -4.6453899117
 H        -0.0940865690       -1.0914100941       -6.3427726313
 H        -0.6661768594       -0.0131987765       -5.1509480631
 H         1.1389408468       -0.2668471634       -5.3319981787
 H         3.8409165655       -0.8485717103       -1.5150875777
 H         2.3851502622       -0.1891836694       -0.8033207490
 H         2.6627426825       -5.9250629510        1.4036223142
 H         1.1910338546       -5.4611439129        2.2319528475
 H         1.3071104085       -5.6011154285        0.4776556208
 H         2.9867840523       -5.2062733209       -1.1697547051
 H         4.4570359167       -5.1969465030       -0.1658191786
 H         4.2953599226       -4.0367654791       -1.5223912189
 H         4.9470037295       -3.1750901080        1.1610885239
 H         5.0614356376       -2.2980145286       -0.2398228516
 H         4.1390500344       -1.7668576288        1.2429834554
 Na       -1.0025015361       -2.2736958600       -0.8078193981
