155

 C         8.1853337032       10.0066039677        1.4336715916
 C         6.7919302022        9.5206150894        1.7565390624
 C         5.7700249798        9.3260599694        0.6078238815
 C         4.9137838558        8.0363256653        1.0059045374
 C         4.0537965854        8.1589018977        2.1678042662
 C         4.7214881979       10.5654351869        0.6746735690
 C         6.2614365239        9.0599522965       -0.8628780344
 O         6.4489493312        9.2959524191        2.8680203617
 O         5.0660411728        6.9612290550        0.4647881310
 C         3.2541097407        6.8445899383        2.2888245654
 C         2.2919852085        6.7413925500        3.4263753547
 C         2.5432925355        5.6541675697        4.5057538664
 C         2.3984676675        4.2292204821        3.9332227089
 C         1.0068918399        3.7344796286        3.4350864354
 O         1.2691754041        7.4041805611        3.4742630464
 O         3.3299527562        3.4885653789        3.9155208005
 C         4.0531130366        5.7524664043        5.0812787805
 C         1.5353595434        5.9715659507        5.6806654189
 C         1.0367254534        2.3737028105        2.7690805717
 C        -0.1427987754        2.0395989069        1.9414071201
 C        -1.2361410154        0.8104948583        2.2993476639
 C        -1.8552958622        0.2756093297        0.9642214026
 C        -2.9590846617        1.0545806596        0.2620259497
 C        -0.4597634851       -0.3928111875        2.8648431964
 C        -2.2133784353        1.3931594449        3.3841180926
 O        -0.5746447289        2.9156060114        1.2115640798
 O        -1.3384876417       -0.7659255339        0.5900808796
 C        -4.3678007850        1.1141666358        0.8945868411
 C        -5.5273527641        0.5681514746       -0.0103034319
 C        -6.7176802113       -0.1070635203        0.8014854113
 C        -6.2318665971       -1.6277781240        1.1357887207
 C        -6.2266593098       -2.7055946474        0.0677027628
 O        -5.6351249868        0.6582162027       -1.1905536792
 O        -5.7768588546       -1.9515596021        2.2073291097
 C        -7.1458319955        0.7055924331        2.1246125082
 C        -7.9335383025       -0.1847864638       -0.1207254312
 C        -5.4836371687       -3.9863580758        0.5574895654
 C        -3.9509967294       -3.8505238991        0.6686973556
 C        -3.0190707631       -4.9946046933        1.1724597783
 C        -2.3059009483       -5.4482252106       -0.1870948882
 C        -2.8755612747       -6.7475089868       -0.8768041907
 C        -1.9200713661       -4.4262051688        2.1005138442
 C        -3.7725552034       -6.0083088130        2.0571564458
 O        -3.4239144223       -2.9392136937        0.1413536164
 O        -1.4275547140       -4.8321300688       -0.6592013143
 C        -2.8313321347       -6.7785880189       -2.4245179859
 C        -3.9552554881       -6.0294544166       -3.1040135915
 C        -3.9408126652       -5.8277213186       -4.7297706084
 C        -2.8660143814       -4.6981882444       -5.0140808854
 C        -3.3814710241       -3.2476816395       -5.2588952872
 O        -4.7181284608       -5.2931430293       -2.4628990880
 O        -1.6962837844       -5.0046695120       -4.9742597613
 C        -3.4093832211       -7.1161698233       -5.5019591205
 C        -5.2952726219       -5.3680569697       -5.1927038405
 C        -2.1281638203       -2.2935176504       -5.5289846513
 C        -1.1504286470       -2.2066927232       -4.4010997910
 C         0.3006677822       -1.6228363160       -4.6308450378
 C         0.7662375591       -0.8886502283       -3.3699001502
 C         2.2012548952       -0.6427082144       -3.0632484379
 C         1.1813366787       -2.8036794346       -4.9694216324
 C         0.4156647173       -0.6503705956       -5.8235452629
 O        -1.4924859099       -2.6090615542       -3.3189797829
 O        -0.0678652485       -0.5403848319       -2.5058204535
 C         2.5211889271       -0.9056809295       -1.5258866494
 C         2.3968876677       -2.3712640802       -1.1164553608
 C         3.2845150886       -2.8690915991       -0.0117084604
 C         2.3807919253       -3.3233562085        1.2432790710
 C         1.6125486104       -4.6100652512        1.0123738485
 O         1.7320068980       -3.2059253977       -1.7310379379
 O         2.2056897847       -2.6962146297        2.2531351546
 C         4.1260288725       -4.0722107417       -0.4400580209
 C         4.1942681753       -1.7737938458        0.6460619961
 H         8.3294758335       10.1871096145        0.3789894351
 H         8.4616635592       10.8831357216        1.9067504740
 H         8.9339500215        9.2547632088        1.6890230400
 H         4.4857760736        8.5071493121        3.1568499261
 H         3.2209647525        8.8077742411        1.9749408214
 H         3.9347681903       10.4991972720       -0.0150937285
 H         5.1726084996       11.5655971771        0.4495195746
 H         4.3267153186       10.5358945078        1.6675618875
 H         6.8930233688        8.1501588492       -0.8758115629
 H         5.4750165956        9.0010035369       -1.6048239715
 H         6.8210351213        9.9697353691       -1.1554425295
 H         2.6489081415        6.8044608035        1.3491355855
 H         3.8659518185        5.9504893750        2.3189864261
 H         0.4606082247        3.6305948700        4.4043984148
 H         0.4978892032        4.3951198794        2.7931064152
 H         3.9748120528        5.2304789318        6.0614228442
 H         4.4508130365        6.7706357458        5.0960023269
 H         4.6083332688        5.0142534813        4.4249653317
 H         1.6457789798        5.2359138403        6.4247959316
 H         1.7541734749        6.8809488420        6.1863126654
 H         0.5109544116        6.1446756172        5.2731718715
 H         1.3562999641        1.6006928449        3.5005367662
 H         1.7846629732        2.5146521404        1.9156080515
 H        -2.6750834214        2.1017534458        0.3041584543
 H        -3.0536062330        0.6982189795       -0.7859458788
 H         0.0134332030       -0.3797604696        3.9098452416
 H         0.2990480899       -0.8154955788        2.1748628495
 H        -1.1788166645       -1.2725097366        2.8987474302
 H        -2.8623365987        2.1549810157        2.9916446087
 H        -2.8751771191        0.6255634887        3.8587029499
 H        -1.6250100443        1.8451727675        4.1463807867
 H        -4.4897106618        0.6900162780        1.8872647175
 H        -4.5064511035        2.2254707834        0.9937733657
 H        -7.2265258934       -3.0520973481       -0.1296300347
 H        -5.9051601269       -2.3932139716       -0.9377481621
 H        -6.1859309202        0.7070897859        2.8128939333
 H        -8.0168677599        0.2140805187        2.6602777017
 H        -7.5796209427        1.6468445237        1.8872024890
 H        -8.0324408711        0.7755004403       -0.5745510916
 H        -7.8568397128       -0.9065230393       -0.9203619575
 H        -8.8675725392       -0.3622441532        0.4289527266
 H        -5.7191518274       -4.7699456396       -0.2010955683
 H        -6.0170920135       -4.2497627711        1.4545419144
 H        -2.3492947165       -7.6518360898       -0.5216808387
 H        -3.9643065577       -7.1507190736       -0.6710666033
 H        -2.2709021892       -4.2615973098        3.0881163141
 H        -1.5129167043       -3.6410209290        1.4319267853
 H        -1.1628326576       -5.2249382021        2.3375770016
 H        -3.1814139581       -6.8657278970        2.3967658432
 H        -4.0610791980       -5.5244830831        2.9859202605
 H        -4.6098722107       -6.3092119510        1.4664757828
 H        -1.8541113900       -6.5649247696       -2.7610304384
 H        -2.8418482290       -7.8116175669       -2.7430829187
 H        -4.1507903025       -3.2422525977       -6.0145948932
 H        -3.9798252435       -2.9848799082       -4.3698549366
 H        -3.4996164787       -6.8945545130       -6.5129188985
 H        -4.0781514083       -7.9325185621       -5.2594345997
 H        -2.3332315388       -7.3339761189       -5.2983995487
 H        -6.0853136711       -6.0434845062       -5.0533690385
 H        -5.6636040259       -4.3920841034       -4.7581376253
 H        -5.1920350355       -5.3353181197       -6.2836005203
 H        -2.5181226160       -1.3498347570       -6.0556656710
 H        -1.5025774526       -2.7870500420       -6.3210716043
 H         2.8686284367       -1.1593223590       -3.7245328666
 H         2.2508098072        0.3925221635       -3.2283123306
 H         0.8760924253       -3.3430121961       -5.7847919778
 H         1.2417354065       -3.4070878394       -4.1103203596
 H         2.1228290098       -2.3681043618       -5.2016409218
 H         0.4274246238       -1.3069411912       -6.7186217259
 H        -0.2711341150        0.1605943678       -5.8930899443
 H         1.3832967614       -0.0773089986       -5.8672694029
 H         3.5206858604       -0.4595123721       -1.2065146121
 H         1.7913846594       -0.4194794238       -0.9162481431
 H         2.2212446156       -5.5047669462        0.9053958039
 H         0.9792855546       -4.9279091113        1.8418920859
 H         0.9771432821       -4.4741405777        0.1122830391
 H         3.5338225409       -4.9178869995       -0.8749572530
 H         4.6171107033       -4.3047452278        0.5177139711
 H         4.8714142981       -3.7358086964       -1.2274536671
 H         4.8820867830       -2.0675575523        1.3983589241
 H         4.8242702805       -1.4149307218       -0.1859044583
 H         3.6976933786       -0.8559329666        0.9101147108
 Na       -1.1463510093       -2.3435312731       -1.0815284555
