155

 C         8.1563114739        9.7573075980        1.4396400415
 C         6.7280272858        9.2101612262        1.7928352470
 C         5.6677033244        9.0300207500        0.8216692428
 C         4.7141163019        7.8831631359        1.1944554092
 C         3.8957348110        7.8633178061        2.5029411545
 C         4.8550075751       10.3082715963        0.4923661763
 C         6.3082421510        8.4008425576       -0.5584521986
 O         6.7022057483        8.7515401631        2.9669050568
 O         4.7501584131        6.8820772315        0.4737583058
 C         3.0672246117        6.6218690842        2.5235143159
 C         2.1982995509        6.7354481599        3.7675593932
 C         2.2187888482        5.4410472305        4.7359799451
 C         1.9478842667        4.1121539437        4.0401798715
 C         0.7666387938        4.0206577000        3.0971382432
 O         1.5008503458        7.7566589207        3.9860400095
 O         2.7865330937        3.2010965174        4.0275503880
 C         3.6802059133        5.4750913890        5.3460032983
 C         1.1181034468        5.5872490573        5.8890713198
 C         0.6692830263        2.5073393276        2.7263023095
 C        -0.6530082394        2.1273392863        2.0836057124
 C        -1.3640843234        0.7675703973        2.3848565567
 C        -1.7193220417        0.2297726658        1.0196594559
 C        -2.8425591089        0.8125006132        0.2655246915
 C        -0.4473561510       -0.3382641108        3.1604330502
 C        -2.4938533710        1.1438701523        3.3911593463
 O        -1.2357016628        2.8569822658        1.2948794646
 O        -1.0265312980       -0.7617962994        0.6320506030
 C        -4.1435262071        0.1351229689        0.7587957809
 C        -5.2829758594        0.1137565063       -0.2886842212
 C        -6.8087586500       -0.1764596145        0.2453152926
 C        -6.6343978177       -1.5816101519        1.0762802360
 C        -6.4807297176       -2.8568606360        0.1661902763
 O        -5.1304970773        0.1416588103       -1.5093661106
 O        -6.4175715293       -1.5468357196        2.2788850599
 C        -7.2442099592        0.9972258558        1.3137790600
 C        -7.8223235895       -0.2247042072       -0.9753534379
 C        -5.3904008765       -3.9287756567        0.7823523371
 C        -3.9830795258       -3.7430037419        0.3585810130
 C        -2.9225598421       -4.7466293657        0.8387629754
 C        -2.0667620882       -5.2141717790       -0.4056309301
 C        -2.2260106879       -6.6429349387       -0.8902661763
 C        -1.9877313412       -3.8885806957        1.8000228046
 C        -3.4728620307       -5.8644326100        1.7629051555
 O        -3.7149283154       -2.8542355792       -0.5341904341
 O        -1.2140476873       -4.5174675467       -0.9688556981
 C        -2.0478866729       -6.9174432721       -2.3962127558
 C        -3.0435637867       -6.0710594253       -3.0938725343
 C        -3.3134347503       -6.2990702642       -4.6509751925
 C        -2.4327885622       -5.0492029369       -5.0893002191
 C        -3.1032415050       -3.7535719803       -5.4561784221
 O        -3.6482394188       -5.2201367092       -2.4459623029
 O        -1.2444009605       -5.0893597475       -5.1942288023
 C        -2.6749072033       -7.5661943801       -5.2674686703
 C        -4.7908896280       -6.0305508676       -4.8330178942
 C        -2.1152520610       -2.6144389736       -5.8044557691
 C        -1.4583213914       -2.0265764017       -4.5226474485
 C         0.0244102266       -1.5672589781       -4.5962415188
 C         0.4701880355       -0.7117274344       -3.2332018886
 C         1.9518425967       -0.4875569184       -3.0445070872
 C         0.9120321498       -2.8901095650       -4.7577314260
 C         0.3523716526       -0.6473443579       -5.8127900962
 O        -2.0167516658       -2.1494680488       -3.4819426580
 O        -0.2588002532       -0.2020436506       -2.4388931306
 C         2.4748576525       -0.5274984744       -1.6085663127
 C         2.1855922802       -1.7842081272       -0.8834574710
 C         3.2679469693       -2.1909300726        0.2645208166
 C         2.5275904570       -2.9711783048        1.4264009692
 C         2.0946863279       -4.4654484603        1.1238289817
 O         1.2566311258       -2.5129752357       -1.1202155161
 O         2.3180594572       -2.3501532263        2.4768397389
 C         4.3561169800       -3.0794735649       -0.4593022511
 C         4.0084110269       -0.9591461347        0.9661706934
 H         8.9411376626        9.4343705719        2.1776140397
 H         8.6140672654        9.4657034484        0.4758725735
 H         8.1646942416       10.8860820511        1.4248317988
 H         4.6032788199        7.9684327631        3.3458828032
 H         3.1718588584        8.7504749496        2.5986996024
 H         4.0648103860        9.9365048522       -0.1666581436
 H         5.4330971833       11.0727030263        0.0190859408
 H         4.3646574627       10.8377026903        1.3581272678
 H         7.1046154760        7.7163829392       -0.2091635403
 H         5.5836106997        7.8374021536       -1.0987601076
 H         6.8515251372        9.1290369611       -1.1392626941
 H         2.5719846386        6.4847836136        1.5345045422
 H         3.8054897005        5.8953817242        2.5164430532
 H        -0.1445132056        4.3013644457        3.6702965722
 H         0.6722911789        4.6634778751        2.2084785624
 H         3.5690424194        5.0466736619        6.3175035731
 H         3.9872751569        6.4743514336        5.5109445855
 H         4.2948313311        4.9140649374        4.7031971336
 H         0.7963448731        4.6123480164        6.2188479928
 H         1.5017782540        6.3110106530        6.6517089503
 H         0.1886839964        5.9279594405        5.4118366709
 H         0.9290694144        1.8735618342        3.5986079691
 H         1.4039469256        2.1702324949        1.9591814200
 H        -2.9659413872        1.8882229409        0.4154038629
 H        -2.7345498101        0.6845186399       -0.8280216498
 H        -0.2436944276       -0.1096864189        4.1670679969
 H         0.5062955353       -0.4066547881        2.6810741152
 H        -0.9112307561       -1.3156068282        2.9889964872
 H        -3.2502783638        1.8242151233        3.0919890854
 H        -2.9483728275        0.1916417121        3.8441594252
 H        -1.8992361034        1.5323257410        4.1999978662
 H        -3.9941767575       -0.8744390891        0.9379357006
 H        -4.6012368708        0.6112241074        1.6911870390
 H        -7.3398158462       -3.4943877896       -0.0396458894
 H        -5.9383941208       -2.5599148422       -0.7627833761
 H        -6.7638697890        0.7836721576        2.3064249508
 H        -8.3208340913        0.9305170966        1.4786396312
 H        -6.6854729649        1.9920567561        0.9250528582
 H        -7.5064569026        0.6609151159       -1.6280332915
 H        -7.8048156535       -1.1258132813       -1.6583407333
 H        -8.8101609089        0.0045324705       -0.5945745203
 H        -5.6338871830       -4.8815646030        0.4406254444
 H        -5.5123987864       -3.8729520163        1.8500719494
 H        -1.4582266591       -7.2267749778       -0.4234047046
 H        -3.2506432897       -7.0487879948       -0.7552198885
 H        -2.5509913534       -3.2856625253        2.4087121296
 H        -1.5474241410       -3.1733485301        1.1903381173
 H        -1.2352219664       -4.5933931534        2.1727336388
 H        -2.6557008676       -6.4737569414        2.1290447173
 H        -4.0061696949       -5.2570383284        2.5494627295
 H        -4.1682337899       -6.5334761850        1.3246761641
 H        -1.0728331133       -6.5699668258       -2.5780658957
 H        -2.0579970352       -8.0265330348       -2.5812510659
 H        -3.7249311068       -4.0508788150       -6.2641166422
 H        -3.6696103117       -3.3802788154       -4.6520140288
 H        -2.7990139691       -7.4011354279       -6.3201775816
 H        -3.3505449005       -8.4288418905       -5.0222387631
 H        -1.6041606858       -7.7567878894       -5.0300006300
 H        -5.3940567039       -6.8794156804       -4.4755527751
 H        -5.0331218171       -5.1123127592       -4.2455259208
 H        -4.9986043833       -5.7142952577       -5.8237973746
 H        -2.8013369419       -1.8401337381       -6.2075755332
 H        -1.3772640702       -2.9750709139       -6.4974021012
 H         2.5735804459       -1.1688581134       -3.6785080097
 H         2.2805250274        0.4599087864       -3.4904920491
 H         0.6388039251       -3.4133404412       -5.7284085670
 H         0.9003786211       -3.5693409994       -3.8399625776
 H         1.9236701281       -2.4274195385       -4.7907888890
 H         0.0221599709       -1.0775597792       -6.7572514767
 H        -0.1520142427        0.2554573523       -5.8477100245
 H         1.4218067032       -0.5114547168       -5.8684694837
 H         3.6106423291       -0.3043832124       -1.7003927970
 H         1.9819329129        0.1511893651       -0.9016846251
 H         2.6790880575       -4.8900864401        0.3237724252
 H         2.2098741598       -4.9486861182        2.0895921136
 H         1.0262666145       -4.5180680434        0.8845223607
 H         3.9309209480       -3.8980766675       -0.8989672116
 H         5.1049377467       -3.3575383909        0.2894031341
 H         4.8152455653       -2.3975742732       -1.0921865864
 H         4.7240219794       -1.2293978437        1.7372191761
 H         4.5740937640       -0.5303630406        0.0755152940
 H         3.3294320674       -0.1302774893        1.3421071469
 Na       -1.4906321667       -2.1983956908       -1.2449252873
