155

 C         8.0607992845        9.5218011767        1.6843360761
 C         6.8930462242        8.6345553561        1.8455126919
 C         5.7146695076        8.7975029476        0.7697169244
 C         4.6831640978        7.5857210097        1.0816916474
 C         3.9128619294        7.8140532376        2.4287541865
 C         4.9328413417       10.1492880846        0.9800476878
 C         6.2008836839        8.5622207047       -0.6460627757
 O         6.7074735828        7.8801348235        2.7867089092
 O         4.5679565294        6.6830110714        0.3150631208
 C         3.5173161664        6.4805783483        3.0202476771
 C         2.3299647599        6.7401941504        3.9947716812
 C         2.1163291446        5.5136355952        4.9936272442
 C         2.0196603816        4.2195070071        4.2721246882
 C         0.8170591785        4.0549060841        3.3115742446
 O         1.5396735933        7.6404826943        3.9583295728
 O         2.8745325323        3.3757838233        4.3268115142
 C         3.2904603874        5.4701830457        6.0404129003
 C         0.7296641955        5.8327688993        5.6748003607
 C         0.5267123628        2.5126564622        2.9894813026
 C        -0.8869200035        2.2795604877        2.5044568321
 C        -1.4201896548        0.8415577420        2.7025619337
 C        -1.7807241829        0.4296280201        1.3267591273
 C        -3.0500325813        1.0669137345        0.6306610601
 C        -0.5344957704       -0.1240340612        3.5144284736
 C        -2.7152970853        0.8907438577        3.7628292412
 O        -1.6381437479        3.0551801958        1.9674991879
 O        -1.0958879357       -0.3977312623        0.6906382679
 C        -4.3660701713        0.2363635315        0.8618028494
 C        -5.0923319811        0.1031313849       -0.4974701645
 C        -6.5377094368       -0.4509388232       -0.4910052219
 C        -6.4377072292       -1.9243973263       -0.0021063301
 C        -5.8892743019       -2.9255035927       -0.9538045038
 O        -4.5514539775        0.5455894433       -1.4845645387
 O        -6.6174953554       -2.2947752768        1.1413588974
 C        -7.4346434876        0.3381569449        0.5392449178
 C        -7.2540342800       -0.3207360720       -1.9067723477
 C        -5.1524576950       -4.0840964574       -0.2435682285
 C        -3.7286428172       -3.6171350828       -0.0369932456
 C        -2.6227003269       -4.6257715396        0.5815896081
 C        -1.7268266451       -5.1032122331       -0.5928968953
 C        -1.4768462017       -6.6211950405       -0.8531980178
 C        -1.7329988512       -3.7627795671        1.5957007806
 C        -3.3415109290       -5.7105749454        1.3480817015
 O        -3.3547238043       -2.4628116718       -0.2228066869
 O        -1.0740085825       -4.2753769935       -1.1384869073
 C        -1.3305632833       -6.8721533982       -2.4407192390
 C        -2.7026313949       -6.5979720832       -3.0833473120
 C        -2.9256601413       -6.6671013946       -4.6579464392
 C        -2.2917666087       -5.3507440421       -5.3142634764
 C        -3.0984433779       -4.0643215307       -5.2758081266
 O        -3.6264770869       -6.2863633019       -2.4268564186
 O        -1.0941285010       -5.4054996401       -5.5039136843
 C        -2.1426308861       -7.8730377128       -5.1679835804
 C        -4.4697423905       -6.8128813138       -5.0057084807
 C        -2.2920150834       -2.8278575949       -5.6729180542
 C        -1.6015972565       -2.2973686383       -4.3964092734
 C        -0.1573987460       -1.6506319850       -4.4069950744
 C        -0.0551205518       -0.5459828753       -3.2947738749
 C         1.4454774030        0.0281894089       -2.7546564043
 C         0.8718025073       -2.8048746818       -4.2299223675
 C         0.2899027830       -0.9761126582       -5.6901979835
 O        -2.2288427059       -2.4780850900       -3.3057695863
 O        -1.0181038724        0.0181468254       -2.8713319417
 C         1.4865354544        0.1290507805       -1.2433192291
 C         1.6181465228       -1.2602457338       -0.5158973978
 C         3.0130729772       -1.5367842473        0.3299067609
 C         2.4883026565       -2.5694841879        1.4921767039
 C         2.9453909817       -4.0085291848        1.4922010368
 O         0.8135754550       -2.1304895189       -0.6935083799
 O         1.8312368493       -2.1399472801        2.4096327733
 C         4.1522645957       -2.0881998138       -0.4695135614
 C         3.4561751057       -0.3738601792        1.1728954060
 H         8.2525506602        9.9694338645        2.6129592541
 H         8.9741250334        9.0441834676        1.2980841575
 H         7.9127773054       10.2790383046        1.0019538506
 H         4.3518577332        8.3425269562        3.2127755760
 H         2.9722785281        8.3688557244        2.3138304751
 H         4.2591389283       10.3154668066        0.1210729002
 H         5.5718680764       10.9683267729        0.9571581551
 H         4.3790383965       10.2025656638        1.9092426644
 H         6.6147383514        7.5365628787       -0.6559185084
 H         5.4597334651        8.6309540329       -1.4513367656
 H         6.8692243203        9.3674506090       -0.9390628851
 H         3.2001017066        5.7772552278        2.2135349838
 H         4.3570483691        6.0957745795        3.5574869594
 H        -0.0864473706        4.4514494198        3.7539697151
 H         0.9887681499        4.7106021259        2.4183497156
 H         2.8488521731        5.0275313389        6.9544951790
 H         3.8205967469        6.4582443064        6.1653538272
 H         4.0962481563        4.7883604549        5.7546690265
 H         0.4317087964        4.9756369233        6.3398028250
 H         0.8044507394        6.7560881826        6.3023977368
 H         0.0628458136        6.1215010514        4.9123953000
 H         0.8541827108        1.9452064618        3.8258245527
 H         1.1988628475        2.2141871753        2.2485105502
 H        -3.1137752894        2.1158879710        0.9167313715
 H        -2.8608062880        1.0889897467       -0.4494428184
 H        -0.4420000712        0.3644584641        4.4797292962
 H         0.4281107897       -0.3879222825        3.0014139710
 H        -1.0051072435       -1.0797277147        3.6835242236
 H        -3.2088323511        1.8457100863        3.5694662601
 H        -3.3328037586        0.0303903067        3.6184234014
 H        -2.3370617991        0.9785234409        4.7964233009
 H        -4.2086913322       -0.7169748758        1.3234855890
 H        -4.9571167109        0.7716826694        1.6987156731
 H        -6.7025189306       -3.4034947273       -1.5041958035
 H        -5.2287063649       -2.5380175986       -1.7517716199
 H        -7.1188008895        0.3063059731        1.5524581784
 H        -8.5608255814        0.0900477225        0.4424469229
 H        -7.4621914537        1.2867251685        0.1659396389
 H        -7.1719141734        0.7034244692       -2.2477254616
 H        -6.8429250726       -1.0007580358       -2.6118013866
 H        -8.2649064385       -0.6026271754       -1.7727875315
 H        -5.1517742701       -4.9913946378       -0.7752623042
 H        -5.7410268947       -4.3327748158        0.7220548902
 H        -0.6647857172       -7.0677912151       -0.3085249541
 H        -2.3054611480       -7.2136556039       -0.6075471910
 H        -2.4368161366       -3.4238353798        2.4237582192
 H        -1.2175564771       -2.9608684172        0.9850831383
 H        -1.0028940793       -4.2651676055        2.2394383678
 H        -2.7138880707       -6.5372390119        1.5786693183
 H        -3.7552003894       -5.3508454891        2.3118792399
 H        -4.1489644161       -6.0781523246        0.7317127038
 H        -0.5658340183       -6.1854233695       -2.8605780938
 H        -1.1205912565       -7.9839898874       -2.7020636751
 H        -4.1120076174       -4.2180957268       -5.8394763865
 H        -3.3565105752       -3.8236900539       -4.2129326475
 H        -2.4828173722       -8.1369362349       -6.2097007665
 H        -2.3081398711       -8.7465263493       -4.5603011551
 H        -1.1217163545       -7.6785026329       -5.1994332389
 H        -4.8662111809       -7.7000622898       -4.4167952189
 H        -4.9612251622       -5.9700054290       -4.6295822758
 H        -4.7061084378       -7.0229658919       -6.0329433610
 H        -2.8797370414       -1.9854447293       -5.9972271288
 H        -1.6934787555       -3.0049238263       -6.5282220647
 H         2.2932466381       -0.6329557783       -2.9973430179
 H         1.5677194448        1.0213736549       -3.2383902673
 H         0.5706325779       -3.5429753599       -4.9358564501
 H         0.8389028801       -3.2220282222       -3.2837258941
 H         1.8138740034       -2.5545424898       -4.5734531902
 H         0.1203302680       -1.6247932984       -6.5724672710
 H        -0.1503292815        0.0643957847       -5.7769004388
 H         1.3482549689       -0.7543072809       -5.6582226473
 H         2.2063106462        0.8564548215       -0.9084370808
 H         0.5712325177        0.4561149313       -0.8367092213
 H         3.7080443128       -3.9443354980        2.2935063910
 H         2.0838187088       -4.6750609339        1.6733441343
 H         3.4506130682       -4.2120966907        0.5583551489
 H         3.7168826734       -2.7423621285       -1.3091485779
 H         4.9316591270       -2.5720023653        0.1276537999
 H         4.4707630646       -1.1954943046       -1.0396132178
 H         4.3584155687       -0.6757466822        1.7289488405
 H         3.7449257731        0.4226733139        0.5519448456
 H         2.6332670920       -0.1219029776        1.8006137490
 Na       -1.4135519183       -1.7569979842       -1.1553889835
