155

 C         8.2883567644        9.3836875999        1.6055237382
 C         7.1036253034        8.4697347006        1.7319927307
 C         5.7772975180        8.7289760523        0.8214794046
 C         4.7283693864        7.7008154282        1.1382459741
 C         3.7524538966        7.9780870920        2.2661101455
 C         5.1418840606       10.1864417362        0.9206494073
 C         6.3896473021        8.4663880784       -0.6173144059
 O         7.0104640026        7.6337070944        2.5862786002
 O         4.5112436382        6.8086369841        0.3192176005
 C         3.6769062269        6.9086510459        3.4498609482
 C         2.3268149271        6.7959406385        4.2482324385
 C         2.1573671199        5.6504984667        5.2264503214
 C         2.0438422222        4.2098454898        4.5421481709
 C         0.7710203873        3.9592023026        3.7291461345
 O         1.3371409430        7.4645411705        3.9127988420
 O         3.0225310867        3.4374954073        4.5639876845
 C         3.3155692293        5.4289590099        6.2401315588
 C         0.7394928234        5.9734158943        5.8402086841
 C         0.3111772104        2.4923037143        3.5608447238
 C        -1.0796223426        2.4249761144        2.9093920299
 C        -1.6892636238        0.9000691388        2.8499840334
 C        -2.2834063973        0.6049131330        1.3280348963
 C        -3.4804939440        1.4332081247        0.7515249857
 C        -0.7162148254       -0.1899728266        3.2905381473
 C        -2.8551294431        1.0573738625        3.9250502647
 O        -1.7482288050        3.4117502700        2.7328234008
 O        -1.7140669452       -0.1926909328        0.6284404780
 C        -4.6641813158        0.4796124150        0.7810930567
 C        -5.2312324448        0.2405450589       -0.6737213923
 C        -6.5565438318       -0.6354696264       -0.8728425220
 C        -6.0774208073       -2.0870048910       -0.5587628229
 C        -5.4669135764       -3.0282972159       -1.6006009040
 O        -4.5435710227        0.6353685343       -1.6508036161
 O        -6.1720850402       -2.5085650437        0.5875159742
 C        -7.6375197090       -0.1804394369        0.1153412214
 C        -7.0385284355       -0.5472508783       -2.3837635838
 C        -4.7269452557       -4.1993102726       -0.9586955679
 C        -3.6685031501       -3.6285334539       -0.0977800198
 C        -2.6345093768       -4.7679818655        0.4840775518
 C        -1.6611208383       -5.1942567387       -0.7931608989
 C        -1.2783319631       -6.6134417444       -1.0725873272
 C        -1.8080369316       -4.0316299877        1.4987778155
 C        -3.4569352711       -5.9535954424        1.0902828554
 O        -3.5416386637       -2.4775104800        0.1920610018
 O        -1.0886809956       -4.3203483376       -1.3423163903
 C        -1.1869674377       -6.9170877572       -2.6191934175
 C        -2.6743482585       -6.8027205918       -3.1629476100
 C        -2.7581276753       -6.8552682037       -4.7708989642
 C        -2.0095803443       -5.4851689052       -5.2027165792
 C        -2.9195493164       -4.3150881423       -5.4373978139
 O        -3.6221152310       -6.6629170787       -2.4583457549
 O        -0.7683821140       -5.5134991981       -5.1612241327
 C        -1.9280566979       -8.0983608506       -5.1862815457
 C        -4.1880345191       -6.9578577113       -5.2853710971
 C        -2.1093079039       -3.0024778242       -5.5048696313
 C        -1.6697678201       -2.4822634759       -4.1363465121
 C        -0.3585400905       -1.7264656766       -4.0962799944
 C        -0.1400630385       -0.6547840476       -3.0128038069
 C         1.2935897680        0.0678504981       -2.9119504840
 C         0.7220474080       -2.8341359154       -3.9789022183
 C        -0.0305819279       -1.0814567960       -5.4597370980
 O        -2.4864267169       -2.6907580420       -3.1285892105
 O        -1.0033763429       -0.0913554723       -2.3855743907
 C         1.5775802317        0.2906391870       -1.4360706931
 C         1.6800811682       -0.9541345910       -0.5904020458
 C         2.8467925616       -1.1585858418        0.4158646172
 C         2.4874474040       -2.2723583975        1.3586855191
 C         3.3140704718       -3.5556448559        1.3664337949
 O         0.8331271474       -1.8451855028       -0.6966526553
 O         1.6067369731       -2.0814512381        2.1944709241
 C         4.1864276301       -1.4577999871       -0.4325322344
 C         3.1285111047        0.1901715733        1.1125409518
 H         8.2664297558       10.1528418531        2.3551694527
 H         9.2462310698        8.8917525502        1.6508245272
 H         8.3103510966        9.9167166902        0.6914813104
 H         3.8622696880        8.8662238321        2.7920429071
 H         2.7376905537        7.9875891737        1.8403729287
 H         4.0765860529       10.1267284173        0.6648004252
 H         5.6546305523       10.8801807231        0.2895782661
 H         5.1457363856       10.5814857929        1.9018729236
 H         6.6760310816        7.4189336149       -0.8136595538
 H         5.6720984851        8.7924009922       -1.4353873545
 H         7.3634338034        9.0092443847       -0.6595274885
 H         3.8108403180        5.9148125605        2.9497467942
 H         4.4772465390        6.9756612373        4.1925149220
 H        -0.0932810697        4.3783629262        4.1870962623
 H         0.8733864016        4.4236269527        2.7061802743
 H         3.2994239455        6.1308717223        7.0616492340
 H         4.2828205767        5.5492785142        5.7801653831
 H         3.3538508693        4.4635136269        6.6776520046
 H         0.5697459683        5.2097970906        6.5684169201
 H         0.6533816325        6.9390497041        6.2096074097
 H        -0.0075648925        6.0234471108        5.0893407414
 H         0.2699095394        2.0955530456        4.5892770209
 H         1.0054545600        1.8775342649        2.9922240388
 H        -3.5568450759        2.3684919209        1.2960528269
 H        -3.2408548958        1.6727603109       -0.2909072375
 H        -0.3942915774        0.0853073238        4.3673671870
 H         0.1553540975       -0.4721049593        2.6052775000
 H        -1.4038511642       -1.0134211142        3.5044971115
 H        -3.7004552439        1.6644356708        3.4996119567
 H        -3.2319303639        0.0854681511        4.0661276770
 H        -2.4158043233        1.3880139844        4.9048721193
 H        -4.4859957684       -0.4552773707        1.3232807252
 H        -5.3866282454        0.9839819189        1.5113463669
 H        -6.2581728542       -3.3854942093       -2.2374430220
 H        -4.7662573033       -2.5662172233       -2.3018209618
 H        -7.4903242236       -0.3773794325        1.0680037207
 H        -8.5812314587       -0.5665359712       -0.2522136815
 H        -7.8394461854        0.8675065686        0.0001533165
 H        -7.5915980416        0.3724374375       -2.6002959829
 H        -6.1957669896       -0.7476634928       -3.0469703876
 H        -7.7389289116       -1.4201062543       -2.4793767092
 H        -4.3179920960       -4.8424393745       -1.6879255622
 H        -5.4248944661       -4.9621528600       -0.4141319288
 H        -0.3384937890       -6.8143597985       -0.5485489490
 H        -1.8388218971       -7.3585558317       -0.6450304510
 H        -2.4582046696       -3.5447445069        2.2959276752
 H        -1.2527881716       -3.1512365417        1.0315701792
 H        -1.1871313147       -4.5490368954        2.1819625350
 H        -2.8318283855       -6.7961074424        1.2717734308
 H        -4.0651412460       -5.6889012479        1.9537617347
 H        -4.1679872195       -6.3487593215        0.3421480188
 H        -0.5427794646       -6.2364960297       -3.2298300314
 H        -0.9473187931       -8.0060841574       -2.8861156709
 H        -3.6959879169       -4.2156044632       -6.2796817948
 H        -3.5399302243       -4.1955628870       -4.4979482668
 H        -2.1948357172       -8.3412063131       -6.2662623652
 H        -2.0080019066       -9.0108688616       -4.6322888579
 H        -0.8906341881       -7.8711899359       -5.1844881668
 H        -4.5131070662       -8.0285902571       -5.1790527916
 H        -4.8557940451       -6.3464932174       -4.7490433650
 H        -4.2691983843       -6.8177162408       -6.3740107830
 H        -2.7741552895       -2.2381991318       -5.9366502051
 H        -1.3631085992       -2.9650497313       -6.2898252699
 H         2.0482783540       -0.5367737382       -3.3586922488
 H         1.2762507535        1.0626007923       -3.3206319733
 H         0.4056509901       -3.7034713037       -4.5788124778
 H         0.7834931736       -3.2000022496       -2.9627526848
 H         1.6846134335       -2.4672144164       -4.3786184211
 H         0.5877440675       -1.6713714170       -6.0977681105
 H        -0.9597145972       -0.6790262646       -5.9504631380
 H         0.5391966881       -0.2235581477       -5.2167608152
 H         2.3451489348        1.0108148996       -1.2519698872
 H         0.7038424302        0.8215581205       -1.0888281036
 H         4.3492093121       -3.2495504955        1.0951534602
 H         3.2808090779       -4.0668923576        2.3388683273
 H         2.7615575807       -4.1711479846        0.6638980776
 H         4.2295843995       -2.4975928537       -0.8233916515
 H         5.0112115401       -1.2763354372        0.1959387691
 H         4.2774629081       -0.8122010584       -1.2948307043
 H         3.8543508792       -0.1256908054        1.9144891163
 H         3.5289680377        0.9315753245        0.4727335019
 H         2.1972096474        0.5390268645        1.5582909947
 Na       -1.4907614710       -1.8565714206       -0.8416663008
