155

 C         8.2813795834        9.3525239427        1.6496496675
 C         7.0418382003        8.4153305383        1.8054964091
 C         5.7415701664        8.7198463541        0.7612840019
 C         4.6443497989        7.7181031256        1.2519152639
 C         3.7194891074        8.1141162572        2.3600265539
 C         5.4910406603       10.1999924140        0.8541506453
 C         6.1945875193        8.3684315765       -0.5980034318
 O         7.0385016341        7.4760640229        2.5791519350
 O         4.4263490077        6.6807296471        0.7160225563
 C         3.7730282212        7.0060374148        3.4627544550
 C         2.4694784295        6.8071156188        4.1129502239
 C         2.1743468179        5.7395471077        5.2798548633
 C         1.9684517707        4.2197032300        4.5515114212
 C         0.6833429413        3.9884278632        3.7357540365
 O         1.5598950478        7.4629264241        3.7662939285
 O         2.8241555491        3.4190173043        4.5957503470
 C         3.4769925627        5.8599038713        6.1334642371
 C         1.0228957311        6.0254908056        6.2339528509
 C         0.1819025604        2.4855733773        3.7262273334
 C        -1.2052545664        2.4065939222        3.1691662258
 C        -1.8850857583        0.9680084478        2.9418685780
 C        -2.3772458841        0.7678728869        1.4809174401
 C        -3.6494139505        1.5095752433        0.8859040734
 C        -0.8948425097       -0.2482091979        3.2501591239
 C        -3.2126423440        0.9548657519        3.8625894636
 O        -1.7949582614        3.4021621548        2.8321581659
 O        -1.7214871867       -0.0446626611        0.8141084413
 C        -4.9874943660        0.6549934653        0.6530160215
 C        -5.1953086320        0.2776762102       -0.7688528396
 C        -6.4430200390       -0.7009166514       -1.0697537973
 C        -6.0018250678       -2.1944611270       -0.6725207677
 C        -5.3030613791       -2.9173164861       -1.7654011371
 O        -4.6247793397        0.7191240888       -1.7015008417
 O        -6.2284371838       -2.7112740551        0.3973734265
 C        -7.6891672816       -0.4343418501       -0.1584707123
 C        -6.8641783555       -0.6033222759       -2.5674245865
 C        -4.6957332916       -4.1981148915       -1.1985139775
 C        -3.5527017502       -3.8070142010       -0.1728318860
 C        -2.6557650805       -4.8556367494        0.4207191550
 C        -1.6889181174       -5.1640664278       -0.7077389989
 C        -1.2785686650       -6.5474683989       -0.9128452841
 C        -1.7281589141       -4.4187435713        1.6184570367
 C        -3.4689143399       -6.0885760508        0.8436679239
 O        -3.4334262256       -2.5849422662        0.1098667420
 O        -1.1205821986       -4.2989409515       -1.4170327902
 C        -1.1835003960       -6.9549125065       -2.3522259061
 C        -2.6124372942       -6.9953822582       -3.1767176484
 C        -2.5895355316       -7.0176023692       -4.7518697350
 C        -1.9677491250       -5.5901111102       -5.1742871655
 C        -2.9522181750       -4.4164127478       -5.4139089162
 O        -3.6841977676       -6.9618250437       -2.5975702244
 O        -0.7937668268       -5.3635812033       -5.2233763423
 C        -1.6485928847       -8.1518739844       -5.3034092156
 C        -4.1013760309       -7.1680610838       -5.2916491566
 C        -2.1991019912       -3.0584096519       -5.4664119694
 C        -1.7032053094       -2.5305336338       -4.1449035254
 C        -0.3090209664       -1.6680358373       -4.1600269200
 C        -0.2020395712       -0.6051989017       -3.0148059681
 C         1.1725422240        0.0793948866       -2.8872370433
 C         0.6720265638       -2.8264406540       -3.7256783830
 C        -0.0321802752       -0.9509000716       -5.4809749306
 O        -2.3391727170       -2.5110364993       -3.1772358884
 O        -1.1707423479       -0.3483091620       -2.3160011916
 C         1.5690528600        0.4580330177       -1.4382095619
 C         1.7385860997       -0.7839029557       -0.5732818043
 C         2.9814082280       -0.9516354050        0.4065026998
 C         2.6429173176       -2.1152024481        1.3355409583
 C         3.4191142484       -3.4316722395        1.4605959694
 O         1.0042417141       -1.7051665163       -0.7338681185
 O         1.6511860428       -2.0018244468        2.0046077404
 C         4.1961817039       -1.0090796131       -0.4441184882
 C         3.0168121878        0.3248275955        1.2820881015
 H         8.2337414061       10.0454441124        2.4699903181
 H         9.2082843451        8.7528160349        1.9029906465
 H         8.4888024424        9.9579707876        0.7815131468
 H         3.9243017109        9.0646449403        2.9260013311
 H         2.7286187279        8.1258906608        1.9087085907
 H         4.8337834162       10.5135051005        0.0689679329
 H         6.4471042763       10.6979861880        0.7614211749
 H         5.0009119501       10.5025650783        1.8159069346
 H         6.8747592021        7.5057988558       -0.5604016046
 H         5.3375635693        8.1601062344       -1.1728905147
 H         6.8844261653        9.0898421566       -1.0032707095
 H         4.0932220306        6.1207688076        2.9163302079
 H         4.5108173405        7.1297492665        4.2515383817
 H        -0.2250214184        4.6102776867        4.0045045434
 H         0.9044746022        4.1858345256        2.7112614175
 H         4.0525882556        6.8271527606        6.1766973098
 H         4.2570063969        5.0813464781        6.0105718632
 H         3.1697789729        5.6581783233        7.1881119581
 H         0.7578910292        5.0800192735        6.7736106687
 H         1.3988037154        6.8108184648        6.9963400515
 H         0.1458652103        6.4351417397        5.7055969269
 H         0.1473358315        2.1788197030        4.7357895554
 H         0.8176950159        1.8080153578        3.1819184041
 H        -3.7428786527        2.3941829579        1.5402870004
 H        -3.2321554755        1.8815500309       -0.0600404211
 H        -0.5183310634       -0.2400508909        4.2098900256
 H        -0.0683788749       -0.1286065895        2.5791633942
 H        -1.4602640964       -1.1704770617        3.0379971307
 H        -3.9923857389        1.5460736508        3.4567746160
 H        -3.6035433337       -0.1119292578        3.9143251892
 H        -2.9007536605        1.2326608682        4.8301946655
 H        -4.7504196293       -0.2762605060        1.1839871918
 H        -5.8070536990        1.0330994071        1.2193275181
 H        -6.0069149718       -3.0563308632       -2.6520763522
 H        -4.5656086285       -2.1548260953       -2.1138925967
 H        -7.3148378595       -0.4485433807        0.9622468139
 H        -8.4963281087       -1.2824414530       -0.2587223974
 H        -8.2370877289        0.5411024093       -0.2621610097
 H        -7.3243334890        0.3792066921       -2.6531251307
 H        -6.0262370719       -0.5774757569       -3.2590085467
 H        -7.5877367223       -1.3141824530       -2.7913862605
 H        -4.3363949310       -4.9473802779       -1.9627801938
 H        -5.4991415669       -4.7126088286       -0.8047456473
 H        -0.3514779830       -6.8702952419       -0.4721159669
 H        -1.9719280258       -7.3465141267       -0.4000912547
 H        -2.1259234802       -4.4342662333        2.6317442116
 H        -1.3868780124       -3.4051566263        1.5498084300
 H        -0.8141472753       -5.1105756988        1.7019570665
 H        -2.9322618263       -6.7708375865        1.5109375197
 H        -4.3097466795       -5.6451308994        1.3842070021
 H        -3.9027079559       -6.6910663588        0.1020187066
 H        -0.5026745008       -6.2869506734       -2.8863333781
 H        -0.8433057536       -7.9576457627       -2.4700960985
 H        -3.4196624087       -4.4816506681       -6.3521313333
 H        -3.7665944803       -4.2778580650       -4.7299494574
 H        -1.2922637340       -8.0050090720       -6.2764017474
 H        -2.2079297368       -9.0940609912       -5.2966599415
 H        -0.8168216953       -8.4182369489       -4.6344351923
 H        -4.6083083572       -8.0575374263       -4.9634637617
 H        -4.7071171810       -6.2801486476       -4.9934461935
 H        -4.0848474198       -7.1878826765       -6.3553464111
 H        -2.7226810813       -2.2309073199       -5.9410037256
 H        -1.4450269666       -3.1622893417       -6.2389058957
 H         1.9826364922       -0.5391311927       -3.3900159941
 H         0.9751978807        1.0238095972       -3.4591597977
 H         0.4503400823       -3.7604482847       -4.1894336857
 H         0.6557360595       -3.0289338017       -2.6842262987
 H         1.6338443567       -2.4898714688       -3.9411739878
 H        -0.1069663024       -1.7229663885       -6.3003832877
 H        -0.8320314256       -0.2496351923       -5.5777796514
 H         0.9872819000       -0.4630768396       -5.5927607632
 H         2.4968592642        1.0921918989       -1.3774738804
 H         0.8425890901        1.1691440266       -1.0486782032
 H         4.4399356100       -3.2117228197        1.2420969622
 H         3.4439612180       -3.6873501573        2.5244534557
 H         2.8507602531       -4.2055638824        0.9235824760
 H         3.9830941539       -1.7610156289       -1.2376143939
 H         5.0689979733       -1.4216184930        0.2023331956
 H         4.5943151659       -0.0392157083       -0.8891393573
 H         3.8460570694        0.3320230206        1.8936403743
 H         2.8670002701        1.2549875132        0.7145374404
 H         2.1581237005        0.1530306101        1.8987688624
 Na       -1.6576598112       -1.9934543891       -0.9569189096
