155

 C         8.2817590989        8.6532929779        1.7481583821
 C         6.8721654816        8.0943922733        2.0439348042
 C         5.8108109866        8.3716342036        0.9146281824
 C         4.6216659217        7.2257872149        1.1323890259
 C         4.0407026295        7.3147969731        2.5822718718
 C         5.2144220197        9.7568474070        0.8941025925
 C         6.4669673752        7.9855216532       -0.3721045197
 O         6.5861012361        7.4051129547        3.0246720795
 O         4.2963948454        6.3871846861        0.3704072349
 C         3.4615051492        5.9617047177        3.2284382597
 C         2.2593497304        6.4232525914        4.0405095479
 C         1.9510460855        5.5756076513        5.3707111001
 C         1.2534624238        4.3725467823        4.5173936816
 C        -0.2633791550        4.3623285289        4.3414729246
 O         1.4562259485        7.2298753914        3.7080098879
 O         1.9691495247        3.5610237973        4.0613127503
 C         3.1567356891        4.9776063580        6.0319589684
 C         1.0837154531        6.2441071776        6.4013355107
 C        -0.8626138046        2.9606027227        4.4249602400
 C        -1.7753004154        2.4472721731        3.2488459484
 C        -2.2205886766        0.9361675364        3.1615315844
 C        -2.2855809494        0.3817047115        1.5499113225
 C        -3.3296197423        0.9408789604        0.5951866713
 C        -1.2639427531       -0.1274309171        3.8153910478
 C        -3.6484632895        0.7695996433        3.7734548614
 O        -2.2324577672        3.1704981374        2.4244016321
 O        -1.5178801106       -0.4918189786        1.1963419140
 C        -4.4356929105       -0.1423073077        0.3237659572
 C        -5.1253128043        0.1402401406       -1.2717299765
 C        -6.4343669969       -0.6696456174       -1.6346398039
 C        -6.2136711771       -2.0977811552       -1.0215350969
 C        -5.1582260863       -2.9087188643       -1.7268023405
 O        -4.6420148006        0.8769654129       -2.0849821262
 O        -6.7547932428       -2.4567199773       -0.0138214257
 C        -7.5163935215        0.0755462383       -0.8545647835
 C        -6.7376434493       -0.6005905334       -3.1235720581
 C        -4.8279303342       -4.2061636898       -1.0826256984
 C        -3.7566331227       -4.1472965136       -0.0330986073
 C        -2.9651348428       -5.3833272110        0.3462042920
 C        -1.5879671445       -5.2974525498       -0.5746527454
 C        -0.8850114079       -6.6952801042       -0.8603091657
 C        -2.5053177776       -5.1792221592        1.8078414902
 C        -3.8436281742       -6.6744079475        0.4036342827
 O        -3.2706292704       -3.0429732632        0.3335291881
 O        -0.9457972223       -4.2420417269       -0.7512492753
 C        -0.6381511230       -6.9839229621       -2.3144252129
 C        -1.9403750694       -6.9842976911       -3.2876016038
 C        -1.8140894104       -6.9341761317       -4.8335987042
 C        -1.4935585922       -5.4509464795       -5.1202326102
 C        -2.6596157798       -4.5036761262       -5.1559132642
 O        -3.0697037932       -6.8321881733       -2.8332355694
 O        -0.3558711715       -5.0602171358       -5.1174331862
 C        -0.5164636811       -7.7427459141       -5.3004043533
 C        -3.0598756803       -7.6095588671       -5.3612707826
 C        -2.2002799024       -3.0596216830       -5.3673807470
 C        -1.3626117322       -2.6041531313       -4.1552605568
 C        -0.0696722776       -1.6657048130       -4.2483133377
 C        -0.2679085967       -0.4425686842       -3.1776703621
 C         0.8699087089        0.4901264132       -2.8536075993
 C         1.1923479081       -2.6154692653       -3.8600460893
 C         0.2682444499       -0.9990573694       -5.6598117718
 O        -1.7856109209       -3.0148443010       -3.0666364100
 O        -1.3568419647       -0.3154394109       -2.7027422184
 C         0.8744981097        0.9924603825       -1.2827185584
 C         1.4960594008       -0.1070495757       -0.3856447023
 C         2.7095035032        0.1580822528        0.5889787907
 C         2.9593234233       -1.1912156838        1.3243007809
 C         4.2289517828       -1.9798181798        1.0849153496
 O         0.9228697528       -1.2178201228       -0.4082483999
 O         2.1645112954       -1.4925108648        2.1778538199
 C         3.8652112252        0.7618240954       -0.2392332979
 C         2.2471951584        1.2364492083        1.6583738359
 H         8.5104242159        9.4838519514        1.1553604352
 H         8.8284795242        8.7243973499        2.7213837778
 H         8.7595502512        7.8251665559        1.2580771356
 H         4.6561423505        7.9022443871        3.3229975978
 H         3.2093788920        8.0866440322        2.4906170832
 H         4.5064936763        9.7256736039        0.1267950531
 H         6.0784935390       10.4313581598        0.7057512252
 H         4.7852955814       10.0902772725        1.8204556031
 H         7.0512256774        7.0769619886       -0.2478723690
 H         5.7413946757        7.6138659178       -1.1297643175
 H         6.9208395725        8.8606053285       -0.8925285267
 H         3.2375861129        5.3047696204        2.4314614063
 H         4.3530742786        5.4553400539        3.6940888697
 H        -0.7281194028        5.0158118242        4.9793506232
 H        -0.4756327838        4.8429223488        3.3583640313
 H         3.7132281836        5.7299673709        6.5763682006
 H         3.8410078218        4.4047802853        5.4555512078
 H         2.9804489255        4.2551348346        6.8661663378
 H         0.8125723988        5.5153658420        7.1498423258
 H         1.6988380527        7.1044846009        6.8016524264
 H         0.1977754133        6.7639937528        5.9972122026
 H        -1.4128370433        2.8687045015        5.3786410639
 H        -0.0399516258        2.3304878104        4.6163946367
 H        -3.8264618422        1.8746215598        0.8194933589
 H        -2.7387841726        1.1460405927       -0.3539668108
 H        -0.9293993942        0.2603935314        4.7247587643
 H        -0.4998222748       -0.3255331869        3.1039193522
 H        -1.7149763646       -1.1086485445        4.0926769257
 H        -4.3367529842        1.5540125376        3.4916282894
 H        -4.0630626141       -0.2090853089        3.4374109228
 H        -3.6246728104        0.7708590572        4.8723681537
 H        -3.8676618891       -1.0505610080        0.4126270163
 H        -5.2493182917       -0.1123106256        1.0196916852
 H        -5.6997972911       -3.0353611514       -2.6845669444
 H        -4.2736793356       -2.2209169206       -1.8137882674
 H        -7.3486028742       -0.0323345480        0.1227555317
 H        -8.5919237019       -0.3329369424       -0.9835397605
 H        -7.6969614751        1.0710841751       -1.0807415278
 H        -6.6525314495        0.4290558006       -3.3678646430
 H        -6.0241324150       -1.1955232818       -3.6681381620
 H        -7.7430027568       -0.8962568431       -3.4532526508
 H        -4.5349864313       -4.9215167724       -1.8569199553
 H        -5.7509468557       -4.5604350765       -0.5360036907
 H         0.0819076953       -6.6287704030       -0.4161198238
 H        -1.5790670340       -7.5011392734       -0.4173973226
 H        -3.3552540384       -5.2356593140        2.4567055463
 H        -1.9733047161       -4.2705812859        2.0418624979
 H        -1.8057186103       -6.0402830341        2.2159240346
 H        -3.2780922476       -7.5438548634        0.7994888085
 H        -4.5820786432       -6.4427009920        1.1257769505
 H        -4.3078849138       -6.9832997800       -0.5288000868
 H        -0.1071754198       -6.2497526826       -2.8606347103
 H        -0.0724699683       -7.8623669726       -2.4483396083
 H        -3.4361201614       -4.7836771047       -5.8227958219
 H        -3.0774773526       -4.4738773519       -4.1934284949
 H        -0.1142423208       -7.3379917135       -6.1629348754
 H        -0.6554797673       -8.7826482140       -5.5523033182
 H         0.3045791708       -7.6563855369       -4.5325931303
 H        -2.9987459919       -8.6391607215       -5.3908052668
 H        -3.9811005114       -7.2735927784       -4.8590477203
 H        -3.0685734696       -7.3226159631       -6.4280204783
 H        -3.0582356984       -2.3546108758       -5.3036809627
 H        -1.5819912321       -3.0250356950       -6.3093965387
 H         1.9115164611        0.3464442420       -3.1273007813
 H         0.5449375401        1.3416505876       -3.5326784023
 H         1.5915885532       -3.1304836719       -4.6820995480
 H         0.9614035371       -3.3256374693       -3.1304344566
 H         2.0557920131       -2.1023662942       -3.5245972677
 H         0.5340717448       -1.8154971120       -6.3566939171
 H        -0.4615522647       -0.2887916093       -6.0220761556
 H         1.2376790404       -0.4222415950       -5.5011896572
 H         1.4667376266        1.8940065286       -1.2032966590
 H        -0.2223850288        1.0890909448       -0.8991406403
 H         5.0199227181       -1.2677026738        0.8687323480
 H         4.2889186136       -2.6790116499        1.9220512468
 H         4.0945241352       -2.5013730590        0.0964206353
 H         4.4492797454        0.1035530375       -0.8477394460
 H         4.6778612465        1.1417409289        0.4794847125
 H         3.6150461012        1.5285015578       -1.0583479689
 H         3.0911441029        1.6003008468        2.1774740991
 H         1.7960063578        2.0815599905        1.1554033073
 H         1.5067621368        0.7828275647        2.3069239340
 Na       -1.3603276357       -1.7001503254       -0.7665120403
