155

 C         8.3512945500        8.5152371480        1.7048096147
 C         6.9794678733        7.8602229835        2.0230161779
 C         5.8719146478        8.0072079419        0.9623920431
 C         4.7324450852        6.9285786051        1.2764897925
 C         3.5614056121        7.3284319071        2.1473574071
 C         5.3420527477        9.5178290892        1.0504623576
 C         6.4874625948        7.7987792931       -0.4739725995
 O         6.7520598378        7.5496006159        3.1620717073
 O         4.8260615918        5.8745416847        0.7928799336
 C         2.7288660811        6.0525115121        2.7867690664
 C         1.8696580971        6.5546445262        3.9194336413
 C         1.5045742526        5.3628500821        5.0034978683
 C         0.8788800498        4.0467203053        4.4319526862
 C        -0.6154187688        3.8395455838        4.5346999274
 O         1.3681254795        7.6600962896        4.0726615092
 O         1.6096119913        3.1500568458        4.0787255015
 C         2.9038707994        5.0521626104        5.5707609117
 C         0.6137245305        5.7993323327        6.2350033945
 C        -0.9423583385        2.3751880917        4.1852544215
 C        -1.7542180817        2.1159673519        2.9881343462
 C        -2.4294515738        0.6219786432        2.9252950225
 C        -2.2238854632        0.2588422895        1.4436742182
 C        -3.0621917059        0.8916949018        0.3608437184
 C        -1.7279992994       -0.4360329786        3.7529010810
 C        -3.8996552339        0.7582073409        3.3973977274
 O        -1.8988652305        2.8778577290        2.0671424972
 O        -1.5372727171       -0.7200590965        1.1663459189
 C        -4.4495240434        0.2258136438        0.2198780144
 C        -4.9011776239        0.2340567202       -1.2056244050
 C        -6.1965248686       -0.6420036416       -1.5553118613
 C        -6.2402157663       -2.1000632412       -1.0589741067
 C        -5.4653840053       -3.2409222984       -1.8032496049
 O        -4.5497934990        1.0695729656       -1.9598255090
 O        -6.8612858508       -2.2963716538       -0.0291205548
 C        -7.3151022387        0.1500330656       -0.7794614968
 C        -6.4299373575       -0.5216767790       -3.0928987983
 C        -4.9913377308       -4.4332401146       -1.0057337483
 C        -3.7452345937       -4.1457447437       -0.1888341728
 C        -2.8704029308       -5.2702188639        0.4840420782
 C        -1.6182966027       -5.3945880540       -0.3664764281
 C        -1.1104137019       -6.8003819647       -0.8402750189
 C        -2.6087354256       -4.8916116429        1.9756553848
 C        -3.6830720469       -6.6149865391        0.6359357253
 O        -3.4888695148       -2.9818709492        0.1962722846
 O        -0.7707511339       -4.5098975147       -0.5444094351
 C        -0.5477855588       -6.7331883378       -2.2242602267
 C        -1.7196037578       -6.6332112333       -3.2422310347
 C        -1.2859917889       -6.7461598849       -4.7628672877
 C        -1.0029955109       -5.3622902102       -5.2717196856
 C        -2.1707419312       -4.4486845225       -5.5191596180
 O        -2.8926777813       -6.5748419151       -2.8912537025
 O         0.0666410632       -4.8704935733       -5.3517451224
 C        -0.1138960536       -7.7019559692       -4.9813603132
 C        -2.5683133220       -7.2897729791       -5.3799158076
 C        -1.9374600534       -2.8424713144       -5.4698735906
 C        -1.4059643020       -2.4830505667       -4.0589104192
 C        -0.1497001355       -1.5329926400       -3.9241377124
 C        -0.3378063355       -0.4334176716       -2.8316795544
 C         0.7179057092        0.5878540727       -2.8159176245
 C         1.0679106793       -2.3567682699       -3.6130100445
 C         0.1444725848       -0.7946677972       -5.2579995651
 O        -1.9184816999       -3.0202398275       -3.0924673217
 O        -1.3602303436       -0.4718116910       -2.2009398103
 C         0.7774948456        1.1537730130       -1.3096061209
 C         1.4291958663        0.0393267334       -0.4310007867
 C         2.5294494268        0.5204792371        0.5495983690
 C         3.0573772102       -0.7353590304        1.3942043250
 C         4.3277882507       -1.4003390142        0.8034005012
 O         0.9631489763       -1.1058037019       -0.4406077475
 O         2.6110439088       -1.0747865803        2.4736270395
 C         3.6977107675        1.1293287589       -0.1950414319
 C         1.7858055013        1.5163248868        1.5120866015
 H         8.3152439379        9.3403672059        1.0938032579
 H         8.9498340441        8.6866907640        2.6322603482
 H         8.8911853175        7.8102122406        1.1439947997
 H         3.8013804323        7.9817137243        3.0104289069
 H         2.8842043575        7.9782404193        1.6302998491
 H         4.4011967228        9.4588862230        0.6189698208
 H         6.0515831400       10.2447175561        0.6182228843
 H         5.2006410068        9.7982124705        2.0989992654
 H         6.4712944551        6.6973248481       -0.6135173129
 H         5.9117532617        8.1690345306       -1.3253316095
 H         7.5050639758        8.2050016426       -0.7006748588
 H         2.1134444071        5.5208202952        2.1229586419
 H         3.5905751084        5.4950191915        3.1861135965
 H        -1.0873181101        4.1700029726        5.4095273666
 H        -1.1567154300        4.4476901094        3.7417004598
 H         3.5800379188        5.8287948773        5.8281530973
 H         3.4325813648        4.4247156606        4.9039100592
 H         2.8529557344        4.4602464260        6.4864037496
 H         0.3127719005        4.9479430160        6.7883235190
 H         1.1040856687        6.4846060977        6.9407329300
 H        -0.1832464593        6.3483234374        5.8887368647
 H        -1.4376410328        1.9278834015        5.0418226140
 H        -0.0686886890        1.8043055050        4.1209476253
 H        -3.1774178665        1.9753925907        0.4141629618
 H        -2.5458377747        0.7274124936       -0.6260715338
 H        -1.8826842842       -0.4004136178        4.8386152924
 H        -0.6260760838       -0.2210893654        3.5575461861
 H        -1.9534101421       -1.5262383926        3.4214275463
 H        -4.4892316787        1.3647142712        2.7576419357
 H        -4.4142517149       -0.2742662650        3.3339016890
 H        -4.0426905161        1.1635330798        4.3895102700
 H        -4.3002971611       -0.8056520159        0.6388877916
 H        -5.2570564870        0.7247582501        0.7591624639
 H        -6.1819992691       -3.5857391204       -2.5954798906
 H        -4.6318017540       -2.6654172983       -2.3151455023
 H        -7.0738813207        0.1096154112        0.2659481446
 H        -8.2874822925       -0.2382488032       -0.9371443755
 H        -7.6299842667        1.1951997887       -1.0949500545
 H        -6.8629376148        0.4952926549       -3.2510959633
 H        -5.4794829351       -0.5215576784       -3.6996948501
 H        -7.0275214569       -1.2796642862       -3.5726348847
 H        -4.9495262717       -5.3358800046       -1.6483475700
 H        -5.7336704154       -4.5034648916       -0.1917277582
 H        -0.2941006329       -6.9713034006       -0.1493858012
 H        -2.0308988171       -7.5063193270       -0.7051028796
 H        -3.4317725629       -4.9725643418        2.6622313126
 H        -2.2138478202       -3.8713360965        1.9854881335
 H        -2.0173629132       -5.6646574467        2.5573248440
 H        -3.0073961199       -7.4717187273        0.9540100661
 H        -4.3851995215       -6.3875179084        1.4268212619
 H        -4.2813542879       -6.8773956414       -0.2260536739
 H         0.0863979214       -5.8362811598       -2.3736402655
 H         0.0420585416       -7.5548220433       -2.5610321180
 H        -2.6797241790       -4.6991198378       -6.4529825215
 H        -2.9257473333       -4.5905290234       -4.7468383678
 H        -0.0469562722       -8.2272390907       -5.8799129095
 H        -0.1564374620       -8.4114707183       -4.1528320690
 H         0.8558648652       -7.1803537253       -4.7550636308
 H        -2.7701322055       -8.2464299248       -4.9345080607
 H        -3.4600289475       -6.6502645325       -5.1530931108
 H        -2.4535115861       -7.3877081095       -6.4639022947
 H        -2.9241567830       -2.4282999746       -5.4245160132
 H        -1.3006435754       -2.4772944185       -6.3045396294
 H         1.6532608251        0.2224474637       -3.2400534855
 H         0.3801341583        1.4909498288       -3.3866218844
 H         1.0028337148       -3.4120343732       -3.9447180838
 H         1.4064273939       -2.3976768530       -2.5682930449
 H         1.9465662441       -1.9587632931       -4.1258558456
 H         0.5987583970       -1.5155380940       -5.9299353909
 H        -0.7098720285       -0.3646470399       -5.6576856211
 H         0.9327512817       -0.0197776958       -5.1316009613
 H         1.4612137606        1.9569443946       -1.3139213435
 H        -0.2527448641        1.4758745552       -1.0770113159
 H         5.1527039759       -0.7585705589        1.0690713387
 H         4.2770995270       -2.4239547287        1.1394305937
 H         4.2878911341       -1.4403005520       -0.3136395461
 H         3.8362799149        0.7045975720       -1.1729381701
 H         4.6601457509        1.1587062642        0.3384429696
 H         3.6855798652        2.2279739970       -0.4018362830
 H         2.3591449899        1.9596842640        2.2928955649
 H         1.3761582817        2.2659041869        0.7740403606
 H         0.8482728808        1.0504745457        1.9190715154
 Na       -1.1809379766       -2.2330480105       -0.5974480498
