155

 C         8.3292189190        8.1997841834        1.7310371678
 C         6.9474791959        7.8528660087        2.0826671879
 C         5.7636862178        7.9797182160        0.9896776262
 C         4.7796704662        6.8505188173        1.4272076882
 C         3.4802083944        7.2033222971        2.1961209425
 C         5.1463660208        9.3814600839        0.9864715069
 C         6.3588774881        7.6215478705       -0.3915931959
 O         6.7758204597        7.4482623506        3.2035065457
 O         4.9963129098        5.6515837058        1.0975863478
 C         2.5125050720        6.1196407521        2.5363593336
 C         1.6700767691        6.5204121395        3.9036748087
 C         1.4419918821        5.3986693180        5.0184696311
 C         0.8537020136        4.0569485608        4.5369747200
 C        -0.7114337138        3.7395947107        4.4003832436
 O         1.3022962790        7.6218005564        4.1036440641
 O         1.5861002714        3.2401163982        4.0134855404
 C         2.8866036890        5.0860173520        5.5266592752
 C         0.7516919007        6.1124917106        6.1702836586
 C        -0.9816220828        2.1799931246        4.1991607419
 C        -1.7506800665        1.8093731338        2.8924706768
 C        -2.5443794102        0.3438702919        2.8631597687
 C        -2.2846916891       -0.1370881699        1.3656779668
 C        -3.0342173618        0.5343976127        0.2555295405
 C        -1.9828678131       -0.6799617031        3.8729822128
 C        -4.0424706627        0.7130677866        3.1136923989
 O        -1.7643663386        2.6116679806        1.9822524545
 O        -1.4351003531       -0.9673058530        1.1473838210
 C        -4.6223671837        0.2350049637        0.1614884356
 C        -5.0665003963        0.3060203775       -1.3206926393
 C        -6.3271268151       -0.5726567237       -1.6136021661
 C        -6.1317152737       -2.0836424193       -0.9758359548
 C        -5.4457840116       -3.1570122489       -1.9144546952
 O        -4.4351710960        0.9400989170       -2.1553179556
 O        -6.5362223980       -2.3347840318        0.1169108971
 C        -7.5285723143        0.1746749054       -0.9931315145
 C        -6.4550090001       -0.6525951871       -3.0936708798
 C        -5.0387392828       -4.3775952494       -1.0156035277
 C        -3.7711090106       -4.0603791866       -0.2101428288
 C        -3.0055393452       -5.2238048850        0.6015286517
 C        -1.6645265718       -5.4389427224       -0.1686130768
 C        -1.1476261737       -6.8613555648       -0.6217635255
 C        -2.4624623842       -4.6351089490        1.9747018534
 C        -3.8006657508       -6.5539751787        0.7243681991
 O        -3.3501880824       -2.9263242548       -0.1712560629
 O        -0.8389981066       -4.5261237070       -0.2266261301
 C        -0.5170474598       -6.9015611811       -2.0216757837
 C        -1.5620031895       -6.5974266621       -3.2096097700
 C        -1.1621544343       -6.7417022636       -4.8787421394
 C        -0.8785019497       -5.2962256597       -5.3304897745
 C        -1.9675349877       -4.3992591339       -5.5560593288
 O        -2.6500698555       -6.2073535024       -2.8964621031
 O         0.3042714822       -4.9268284905       -5.3785979453
 C         0.0666584865       -7.6434662293       -5.0327882289
 C        -2.3462156877       -7.2874530479       -5.6647509470
 C        -1.8417256626       -2.9046299061       -5.4118258721
 C        -1.3645362821       -2.3713760044       -3.9799036939
 C        -0.2066915153       -1.3807828737       -3.9145234824
 C        -0.4419189814       -0.3851573634       -2.8999542774
 C         0.3945798859        0.8998055468       -2.7505391693
 C         0.9654895213       -2.3288931717       -3.4692804102
 C         0.0586027185       -0.8074916221       -5.3128805198
 O        -1.8188776357       -2.8556107284       -2.9788480761
 O        -1.4666177487       -0.4407432137       -2.1912998682
 C         0.6962891139        1.2887195935       -1.3251047296
 C         1.3577533739        0.1351464429       -0.3789770804
 C         2.4902763188        0.6319176353        0.6052359578
 C         3.1877402267       -0.5137850548        1.4449803556
 C         4.2527663235       -1.4426597466        0.8368125802
 O         1.1413462714       -1.0734704722       -0.4819004016
 O         2.8005866374       -0.7191210440        2.5513305355
 C         3.5519622546        1.5848395571       -0.1654951638
 C         1.7767809103        1.5279241766        1.6542394411
 H         8.4310233336        9.2273240619        1.2901214240
 H         8.6926118042        8.2814258399        2.7181426944
 H         9.0097904373        7.5600181515        1.1320367461
 H         3.7228376852        7.6956939407        3.1586763726
 H         2.8545982230        8.0198846412        1.7013456896
 H         4.1803361294        9.3616511360        0.3920228825
 H         5.8152277762       10.0708927061        0.4701522342
 H         4.9418458239        9.6784784558        1.9939501888
 H         6.9802333647        6.7237730540       -0.4269992685
 H         5.5112816635        7.3852806010       -1.1055425635
 H         6.9044912517        8.4327207346       -0.8990865833
 H         1.7050065401        6.0921642510        1.7161772979
 H         3.1629483299        5.2561659486        2.7115030475
 H        -1.2458726597        4.0707160616        5.3353819289
 H        -1.1831897902        4.2659700803        3.6134424438
 H         3.6239246216        5.8360869417        5.1456983237
 H         3.3543129434        4.1765572010        5.0761866573
 H         3.0279698385        5.0462670452        6.6154261820
 H         0.9032894652        5.4942099069        7.1010809356
 H         1.1874472700        7.0670901020        6.4480313479
 H        -0.3889043405        6.2970003480        5.9309016807
 H        -1.3454770544        1.7391807943        5.1219258062
 H         0.0852250521        1.7958124022        4.1785448279
 H        -2.8606870247        1.6359805806        0.2806427095
 H        -2.6270299712        0.2047806534       -0.6828719645
 H        -1.9499604049       -0.2324438060        4.8551919599
 H        -1.0127132835       -0.9376122577        3.6754657575
 H        -2.5924756686       -1.5311612389        3.8853576188
 H        -4.3068838588        1.7245231353        2.6774515364
 H        -4.7964700517        0.0811438354        2.8212485034
 H        -4.1723482278        0.8610401594        4.2069557825
 H        -4.9975124661       -0.6058333063        0.6974034283
 H        -5.0426153477        1.1500057736        0.6077100131
 H        -6.1022221969       -3.5333128149       -2.7039039062
 H        -4.6366818027       -2.6517292432       -2.3931577972
 H        -7.7350845303        0.0060689069       -0.0009948218
 H        -8.5172271060       -0.0321243828       -1.6306635670
 H        -7.3964671353        1.2139234042       -1.0752196787
 H        -6.5056667971        0.2850679010       -3.5722493384
 H        -5.6469569043       -1.1332584085       -3.5656282811
 H        -7.3730015868       -1.2505400078       -3.3048346327
 H        -4.7659355736       -5.1181558612       -1.7439924736
 H        -5.9181087308       -4.6847734911       -0.3972136347
 H        -0.3114721421       -7.0203983509        0.0357107213
 H        -1.9175043724       -7.6037155211       -0.4901572131
 H        -3.3078439740       -4.5075102385        2.6621244674
 H        -1.9766399230       -3.6989729377        1.8210967539
 H        -1.9281915591       -5.3586094755        2.5504214302
 H        -3.3068287861       -7.1833530173        1.3931095127
 H        -4.8445217349       -6.4153718808        0.9881769526
 H        -3.8650507277       -6.9273390358       -0.3149480818
 H         0.2323343300       -6.1676880006       -2.1418425536
 H        -0.0668230836       -7.8837152299       -2.2619346862
 H        -2.3333606390       -4.5215652250       -6.5765562856
 H        -2.8373198601       -4.5941722983       -4.9503161029
 H         0.4793822574       -7.2016034290       -5.9745249923
 H        -0.0557277939       -8.6972517230       -5.2026378186
 H         0.8273937316       -7.4734304043       -4.3220321434
 H        -2.4836799590       -8.3411625870       -5.4447255637
 H        -3.2613280458       -6.7964516606       -5.4819995505
 H        -2.0952731291       -7.1320957341       -6.7200524259
 H        -2.9537652437       -2.7101774903       -5.5107268114
 H        -1.2632936524       -2.4665998362       -6.2128240603
 H         1.4170651655        0.8390945641       -3.1683172598
 H        -0.1280470628        1.7255594863       -3.2139683022
 H         1.1474079981       -3.1166020445       -4.1165507986
 H         0.7365086550       -2.8104109846       -2.5564177123
 H         1.8518374514       -1.7915920588       -3.2306197758
 H         0.2711095611       -1.5713867120       -6.0731029000
 H        -0.7646817745       -0.0722731544       -5.6770109576
 H         0.9881930593       -0.2903381938       -5.1706106220
 H         1.3337423114        2.2331548376       -1.3569357949
 H        -0.2187566151        1.4336383300       -0.6868769662
 H         5.1768109187       -1.0776811800        1.3452857109
 H         3.9565216992       -2.4998355067        0.8688790469
 H         4.3200966232       -1.1806989239       -0.2049056792
 H         3.7259304791        1.2612441003       -1.1932586998
 H         4.5338396461        1.7687989899        0.2664676507
 H         3.3275241368        2.6459190708       -0.2171588556
 H         2.5741398275        2.0585917082        2.2074430195
 H         0.9962244987        2.1285122805        1.3302270674
 H         1.4011206957        0.8593848708        2.3918410198
 Na       -1.0292055334       -2.1747184839       -0.5777507601
