155

 C         7.9789215300        7.0923006337        2.2272973927
 C         6.4917487431        7.3570872690        2.3815117715
 C         5.5351177258        7.1494239292        1.2290340108
 C         4.2450315841        6.2411706190        1.6925806467
 C         3.4057220828        6.5744572241        2.8855131354
 C         5.0048629861        8.4359342469        0.7473733300
 C         6.0765978545        6.5127806688       -0.0206133424
 O         5.9986111322        7.8002104964        3.4013865518
 O         3.9842915762        5.2861162013        0.9494908152
 C         2.3218285225        5.5027675571        2.9190492100
 C         1.0760463484        5.9962698059        3.7406394719
 C         1.0923091535        5.5503128616        5.2427738331
 C         0.6553841941        4.0297205260        5.3419047350
 C        -0.3972037556        3.6480701110        4.2894991671
 O         0.2005105385        6.5041421610        3.1663339572
 O         1.1751491254        3.2587424738        6.0869206569
 C         2.3983500548        5.9918970640        6.0170426836
 C        -0.0451161386        6.3296767730        5.8828677091
 C        -0.9758072228        2.2533356811        4.2763094905
 C        -1.4952968129        1.8825333327        2.8925324407
 C        -2.5733469856        0.6989042717        2.8359838472
 C        -2.5728730348        0.1081994160        1.2975927519
 C        -3.4615278206        0.6115706608        0.2168315968
 C        -2.2086664363       -0.4915832411        3.7434251089
 C        -3.9524729453        1.2395103432        3.1885774452
 O        -1.2743432219        2.4689260080        1.8535502847
 O        -1.7639469925       -0.7754262563        1.0722788660
 C        -4.8338555334       -0.0630838845        0.0521263932
 C        -5.2633834832       -0.2222319790       -1.4669369525
 C        -6.6030600211       -0.9815690743       -1.6977788746
 C        -6.2218356205       -2.5112520674       -1.1205507717
 C        -5.9460218757       -3.6219269023       -2.1392060552
 O        -4.4945143744        0.0886991404       -2.3124154003
 O        -6.2440610215       -2.7429200138        0.0553596186
 C        -7.7350425144       -0.4173287190       -0.7825620404
 C        -7.0375496009       -0.9520120752       -3.1940286876
 C        -5.0943102946       -4.6326147833       -1.4141858743
 C        -3.8267747099       -4.0474557897       -0.8213070996
 C        -3.0511788746       -4.8022519553        0.3645457413
 C        -1.6825862266       -5.2412290442       -0.3061844459
 C        -1.4285158513       -6.7136123739       -0.5932234398
 C        -2.6613863113       -3.7442021473        1.4027717235
 C        -3.7734521426       -5.9981581376        1.0026573633
 O        -3.4148576451       -2.8808062807       -1.0903932991
 O        -0.7794547600       -4.4565861701       -0.5093174974
 C        -0.3542166792       -6.9562776166       -1.7380307874
 C        -1.1138294463       -6.6110870964       -3.0626599099
 C        -0.4299092148       -6.7044495753       -4.4387120892
 C        -0.2755286460       -5.0704435153       -4.8235582264
 C        -1.5734701776       -4.2824906085       -5.0574174844
 O        -2.2984541480       -6.2993954157       -3.0187478823
 O         0.8465316528       -4.6092238392       -4.9125997347
 C         0.9343682721       -7.3552845271       -4.3639632941
 C        -1.4301387508       -7.3645208001       -5.4486955677
 C        -1.1161560207       -2.9119581875       -5.3093079827
 C        -0.4026523357       -2.2962959797       -4.0566893142
 C         0.5137307448       -0.9359916983       -4.1225352949
 C        -0.0539742323        0.1279238535       -3.0595221565
 C         0.6882968216        1.3624688655       -2.6119912756
 C         1.9750857972       -1.4752292972       -4.1975737491
 C         0.1178664299       -0.1707093141       -5.3972580223
 O        -0.3967771460       -2.9170074379       -3.0073634605
 O        -1.1558992999       -0.0580212992       -2.5004128616
 C         0.5060446853        1.6206812130       -1.1089100795
 C         1.2113704044        0.5793049305       -0.2360875316
 C         2.5873782781        1.0452677487        0.4094376797
 C         3.3247262542       -0.1611068504        0.9797234464
 C         3.5018844810       -1.3954268005        0.0020707499
 O         0.6879596568       -0.4717057639       -0.0152733703
 O         3.8909869713       -0.1878780804        2.0440910607
 C         3.3597351275        1.7542151274       -0.6657134083
 C         2.1340261399        1.9709827412        1.6091704815
 H         8.4675551873        7.6159515968        1.3708924697
 H         8.4885442177        7.5293761399        3.0274769498
 H         8.2508092640        6.0410790810        2.2504303266
 H         4.0684845633        6.5451807038        3.7863721569
 H         3.0651144197        7.5781672440        2.6489891099
 H         4.1031169944        8.1843943723        0.1657892003
 H         5.7158127735        9.0196741259        0.2830990003
 H         4.6496106335        9.0509626721        1.5552495618
 H         6.2995349827        5.4021252742        0.1264943707
 H         5.3963987802        6.5628049299       -0.8847202192
 H         6.9837748345        7.0147292037       -0.4423588341
 H         2.1451798401        5.0458465281        1.8951874221
 H         2.8692939415        4.5972009884        3.3126989494
 H        -1.2707044028        4.3399467146        4.2660147218
 H         0.0470841505        3.6723650062        3.3166951114
 H         2.5394390628        7.0547414958        5.7356312075
 H         3.2459856899        5.3322276499        5.7256941977
 H         2.2891402876        6.0574737968        7.0714078332
 H        -0.1801965628        6.0235281992        6.9526190475
 H         0.1159960860        7.3640894224        5.7332015405
 H        -1.0483149711        6.2540619531        5.3674332954
 H        -1.8750728041        2.2579931874        4.9657447915
 H        -0.2151598120        1.5680575059        4.6309872335
 H        -3.7126730798        1.6732882274        0.4437366971
 H        -2.8090156517        0.5969291967       -0.6799189921
 H        -2.3163694911       -0.3211728553        4.8081765755
 H        -1.2997180225       -0.8949217909        3.4848773999
 H        -2.9009065489       -1.2425037180        3.6346861541
 H        -4.1727959121        2.1682982133        2.5852339108
 H        -4.7962637234        0.5821590465        3.1972093962
 H        -3.9238132188        1.6567234227        4.2032191530
 H        -4.9914256609       -0.9873476956        0.6364149425
 H        -5.5165224309        0.6149386541        0.5065268927
 H        -6.8196781002       -4.1089479779       -2.5205434084
 H        -5.5060984549       -3.2143006020       -3.0343130024
 H        -7.6187781645       -0.8406923622        0.2354298636
 H        -8.7626575212       -0.7899592544       -1.1695587167
 H        -7.8535170060        0.7628389249       -0.8344354366
 H        -7.1823580835        0.1105509471       -3.4377081411
 H        -6.2831514645       -1.4063407817       -3.8335838435
 H        -7.9513898920       -1.4980177499       -3.3822881695
 H        -4.8393563394       -5.3819694537       -2.2037431425
 H        -5.5961406360       -5.1538425250       -0.6929501205
 H        -1.1216524378       -7.0867074768        0.4804473049
 H        -2.4273615040       -7.1642485071       -0.7378933043
 H        -3.2522887389       -2.8369041172        1.2519530386
 H        -1.5926784969       -3.4638728210        1.3449009325
 H        -2.7085905554       -4.2251745506        2.3304193524
 H        -3.1044296143       -6.5728837849        1.6305236683
 H        -4.6438260742       -5.6723277758        1.6181155459
 H        -4.0758192707       -6.7124453367        0.2701396678
 H         0.5784878110       -6.3325135787       -1.5343195131
 H        -0.0946383965       -7.9920741829       -1.7183669458
 H        -2.1622612668       -4.5832673231       -5.9155529013
 H        -2.1761156664       -4.4890163182       -4.1296106633
 H         1.5151518863       -7.2837785279       -5.3322734336
 H         0.7147275152       -8.3896858209       -4.1769434248
 H         1.4757214860       -6.9457306417       -3.5743496525
 H        -1.6310426527       -8.4295859485       -5.0812190538
 H        -2.3532269216       -6.8452675056       -5.3193178690
 H        -1.0712012552       -7.4107536106       -6.4399718550
 H        -1.8739329411       -2.3616725725       -5.8181290096
 H        -0.3912494156       -2.8966459786       -6.1404245180
 H         1.7278778671        1.1251193794       -2.9280061763
 H         0.4728038150        2.3226811012       -3.0972008682
 H         2.1670909703       -2.3069875333       -4.8192719508
 H         2.1836706051       -1.7242492542       -3.1949842879
 H         2.7298481533       -0.8236556762       -4.5292372034
 H         0.2861137102       -0.7979000757       -6.2804389620
 H        -0.9314584511        0.1640994850       -5.3026103524
 H         0.6137280666        0.7826594008       -5.5586431702
 H         0.7595494678        2.7015453918       -0.8554972928
 H        -0.5402861576        1.5724957633       -0.9212408196
 H         4.1309729934       -2.2144757795        0.4305842696
 H         2.4818581576       -1.8064361085        0.0793377574
 H         3.7956559512       -1.0413116038       -1.0062374412
 H         3.5584593571        1.1333980300       -1.6169158956
 H         4.3586224395        2.0152355833       -0.3032082026
 H         2.9093095560        2.6103287238       -1.1340611694
 H         2.7141209058        2.9282861094        1.6712806220
 H         1.0803539990        2.2279844215        1.6468399588
 H         2.3595876375        1.4084226213        2.4865455219
 Na       -1.0264723815       -2.0661498817       -0.9070495352
