155

 C         5.2752360022        4.6892197422        4.3289318989
 C         5.1709141541        6.0574134265        3.4076471394
 C         4.6273669921        6.0381318088        1.8707777106
 C         3.3288305838        5.1665348817        1.9519946179
 C         1.9223417429        5.7868965632        1.9614295559
 C         4.4224068186        7.5085071606        1.3956718896
 C         5.8151077657        5.2807280471        1.1507758276
 O         5.3982127495        7.1239747547        3.8541255115
 O         3.4080875301        3.9306720373        1.8056518053
 C         1.7982769435        6.7702739553        3.0958676497
 C         0.5051980992        6.6501035137        3.8759894399
 C         0.5218574913        5.9189915922        5.2412624320
 C        -0.7461204915        5.0506866717        5.1598794894
 C        -0.6931936395        3.6782940560        4.4611948644
 O        -0.4806051576        7.1721683869        3.4179642854
 O        -1.8004048252        5.5094622427        5.5493671206
 C         1.8399578928        5.1123994193        5.5431828642
 C         0.2806466001        7.0496654824        6.3190488401
 C        -2.0752945042        3.2022961654        3.9366050993
 C        -2.0660549576        2.5629116234        2.5859746514
 C        -3.2518211333        1.5686757924        2.2356383784
 C        -3.0943297225        0.9511550073        0.7291944375
 C        -4.2522060755        1.1141618498       -0.3398778379
 C        -3.0540703971        0.2703285295        3.1222198748
 C        -4.6380479810        2.1078616814        2.5860635718
 O        -1.2224772371        2.7837302623        1.7634150086
 O        -2.1891986980        0.1613730236        0.5138765224
 C        -4.7927682148       -0.3171761288       -0.4221952935
 C        -6.0706073032       -0.3942110323       -1.3791142398
 C        -6.8891233918       -1.7968584781       -1.4018330891
 C        -6.0273765805       -3.1187133311       -1.1368100194
 C        -5.2137427157       -3.6108350219       -2.3566071388
 O        -6.3342726719        0.4722973830       -2.1013082454
 O        -5.9088895717       -3.7047772162       -0.0826466195
 C        -7.8196216653       -1.5221946416       -0.2183368943
 C        -7.6408183495       -1.8792099642       -2.7473567986
 C        -3.9939795354       -4.4110450039       -2.1070429978
 C        -3.1385940861       -3.9141066301       -0.9650184092
 C        -2.4997148160       -4.9245109570        0.0648232815
 C        -0.9751156765       -4.8750743863       -0.2942758363
 C        -0.0291960229       -6.0586566074       -0.1299118651
 C        -2.5785965864       -4.1304170238        1.4439932283
 C        -3.1376099170       -6.3001736965       -0.0366393071
 O        -2.9363692770       -2.6997039977       -0.8974393303
 O        -0.3762039626       -3.8219819140       -0.4942032796
 C         0.7515184943       -6.1018452881       -1.4687411346
 C        -0.0617969682       -6.0569085958       -2.6717533949
 C         0.7011120976       -6.0951609169       -4.0919614115
 C         1.5440161506       -4.8045654941       -4.3055192053
 C         1.1717787693       -3.8594103069       -5.4184147124
 O        -1.2645117614       -5.9110529809       -2.7510512779
 O         2.4113370543       -4.5036684573       -3.5344266343
 C         1.8181727349       -7.2705926354       -4.0254614278
 C        -0.3067091060       -6.3741635233       -5.2943434455
 C         1.4125487605       -2.3526263538       -5.1601878870
 C         0.4262230455       -1.7047295752       -4.1034224296
 C         0.0820428022       -0.3000168816       -4.4196474344
 C        -0.0991238863        0.4902351925       -2.9945450327
 C         1.0624493180        1.3144727791       -2.2866259956
 C         0.9776989500        0.4988782303       -5.3976764531
 C        -1.2732481927       -0.4075152389       -5.1298625838
 O        -0.1253718737       -2.3931177609       -3.2358259696
 O        -1.1140881915        0.2460609007       -2.3851822019
 C         1.0862273775        1.2719812185       -0.7321192592
 C         1.8084203567       -0.0674671434       -0.3430939149
 C         3.2158096218        0.0627959462        0.2867039142
 C         3.8714153576       -1.4175606547       -0.0889431436
 C         4.3697384510       -1.5632885038       -1.5190466101
 O         1.1735382043       -1.0966627325       -0.3578829781
 O         3.8997345693       -2.2876541579        0.7647681789
 C         4.1089295003        1.1849353328       -0.2737843220
 C         2.8402368852        0.2373326828        1.7952382317
 H         4.9518440753        5.0377985537        5.3194338292
 H         4.6436452521        3.9154879054        4.0766875874
 H         6.2788508552        4.2115185172        4.2738880907
 H         1.7970554693        6.3751971733        1.0322601308
 H         1.2669241991        4.9022712111        2.0147127525
 H         3.6100657975        7.7057373024        0.8196976175
 H         5.3463034628        7.6906724686        0.8299675397
 H         4.5739740977        8.2343149237        2.2303531263
 H         5.6949769535        4.3222163291        1.5742832777
 H         5.3317380567        5.1697094420        0.1663750673
 H         6.7260767896        5.7926277129        0.9553577075
 H         2.6844860862        6.8965877063        3.7350348856
 H         1.7603211908        7.7404873009        2.6674695864
 H        -0.1736500275        3.7326839516        3.4430564106
 H        -0.1987115679        2.9410528106        5.1538215133
 H         2.5369291660        5.6934412246        6.0420901028
 H         2.1149148051        4.5127014436        4.7365256847
 H         1.5343705330        4.5119854601        6.4002783524
 H         0.5744004840        6.7464779497        7.2892700591
 H         0.9156578003        7.9215773374        6.0610534861
 H        -0.6803511679        7.4244791307        6.2707004336
 H        -2.6557929866        4.1608251492        3.9145265161
 H        -2.5288453903        2.4627470848        4.6493169501
 H        -4.9327751409        1.9005346055       -0.0276502069
 H        -3.8220145405        1.4067040467       -1.2703239417
 H        -3.3004864061        0.6584189154        4.1430692547
 H        -2.0426466299       -0.1056920812        3.0194626147
 H        -3.7112996457       -0.4596360912        2.8071051357
 H        -4.8926423367        2.9232252394        1.9761305718
 H        -5.3033658349        1.1954841859        2.4631415078
 H        -4.6620673015        2.4536058450        3.6387155977
 H        -4.0359644991       -1.0165492150       -0.8689806559
 H        -5.0701005928       -0.8075517929        0.5235720518
 H        -5.8565667071       -4.2565071337       -2.9598223883
 H        -5.0739921988       -2.8602347307       -3.0615828885
 H        -7.3975720099       -0.8997517595        0.5429076566
 H        -8.1921065777       -2.3673263993        0.1870762769
 H        -8.6766203000       -1.1036570141       -0.5565137877
 H        -8.2575943364       -1.0212682297       -3.0442863221
 H        -6.8941707475       -1.8573501151       -3.5793817461
 H        -8.1331460244       -2.8347658780       -2.7635111907
 H        -3.3968748848       -4.5020703517       -2.9627249192
 H        -4.3173862392       -5.4465439605       -1.7735983910
 H         0.6817591717       -5.9605071062        0.6691327773
 H        -0.5315580563       -6.9550861686        0.1283868252
 H        -3.6528303340       -3.9269045168        1.6772977583
 H        -2.1246203494       -3.1263735615        1.3525360098
 H        -2.0441737383       -4.6718638672        2.1467367707
 H        -2.9474066459       -6.8907751323        0.8964487328
 H        -4.2153185336       -6.2146835074       -0.1141278347
 H        -2.8780713281       -6.7705086261       -0.9978621134
 H         1.4447674329       -5.2363674702       -1.4894575984
 H         1.5194882225       -6.9999091907       -1.4436629179
 H         1.6897979975       -4.0591586161       -6.4113573360
 H         0.1325855039       -3.9919798231       -5.8039790456
 H         1.9133252287       -7.9353599962       -4.8144985183
 H         1.6009280093       -7.9260489235       -3.1580550135
 H         2.8399715240       -6.8587766072       -3.8164680206
 H        -0.7764051559       -7.3243055164       -5.0536277744
 H        -1.2174248224       -5.7260342513       -5.3765056118
 H         0.1840270065       -6.5290798269       -6.2671564148
 H         1.2654501696       -1.9092619074       -6.1413812361
 H         2.3604751853       -2.0951721099       -4.6929679132
 H         2.0521658731        0.9347388474       -2.5881852468
 H         1.0213268260        2.2994609041       -2.7443285396
 H         0.9031269453       -0.0356522803       -6.3219239789
 H         2.0207829100        0.2680911105       -5.1209263837
 H         0.7535636922        1.5579273906       -5.3416509719
 H        -1.2090988420       -0.9435135662       -6.0512674474
 H        -1.9779359332       -0.7567883067       -4.4526702042
 H        -1.6645348881        0.5503639636       -5.4539660755
 H         1.5747129778        2.1099544137       -0.3388638316
 H         0.1442222075        1.3933462860       -0.2446320127
 H         3.4177772137       -1.7108016146       -2.0536784514
 H         4.6146236196       -0.6134064092       -1.9840278717
 H         4.9887659904       -2.4761487160       -1.7346279315
 H         3.7970274161        1.3138874005       -1.3630247715
 H         5.1058980646        0.8045386324       -0.1081045077
 H         4.0878814169        2.1339812763        0.3411299723
 H         2.2599227868        1.1102730007        1.9455269109
 H         2.3449673563       -0.7023391819        2.1657365420
 H         3.7946417593        0.3636057801        2.3362210381
 Na       -1.0453950654       -1.5114555742       -1.1173563681
