155

 C         3.7570704385        3.3888102831        4.8925562382
 C         3.9732750666        4.9556302713        4.7566603524
 C         4.5370691154        5.4211439284        3.3549972523
 C         3.4573287308        5.6885767629        2.2470593109
 C         2.8459061007        7.0875680305        2.2385607712
 C         5.3032095129        6.7404113761        3.5246145253
 C         5.4795861836        4.3747377901        2.9116547301
 O         3.6778819532        5.6918186248        5.6733448323
 O         3.1105049174        4.9450386429        1.3691129139
 C         1.7955303528        7.3712977279        3.3786227362
 C         0.5308347336        6.5789941930        3.0428609199
 C        -0.7091618227        6.4132913252        4.1184227432
 C        -1.7733206970        5.4524445540        3.5975745425
 C        -1.3839877374        4.0331473220        3.0771250436
 O         0.3952636189        6.1790815565        1.8603401376
 O        -2.9313443942        5.7781217400        3.4432440316
 C        -0.1954468506        5.9146412681        5.4286396480
 C        -1.3056785947        7.8377997638        4.2773139285
 C        -2.5682527349        3.0290773409        3.1002313946
 C        -2.8496130217        2.4283399669        1.6762018691
 C        -4.1129356447        1.4487568510        1.5177210739
 C        -3.7459865469        0.2668547127        0.6156731707
 C        -4.1260047744        0.0935858861       -0.8712960222
 C        -4.7557285472        0.9301681209        2.8889674653
 C        -5.1290017593        2.4607817604        0.8703611602
 O        -2.2859256781        2.8174624102        0.6790287980
 O        -2.9706620373       -0.5439414640        1.1571936791
 C        -5.1638419769       -0.9959688537       -1.0768888769
 C        -5.2593632775       -1.4828294278       -2.4347149067
 C        -6.2576104692       -2.7049546995       -2.5797576786
 C        -5.4975771006       -3.9426090111       -1.9264291424
 C        -4.4128374175       -4.6123564933       -2.7225471590
 O        -4.5375495579       -1.1794009865       -3.3516942962
 O        -5.6548069417       -4.2825748350       -0.7700877919
 C        -7.5703004429       -2.5465732148       -1.8290471699
 C        -6.6104173448       -2.9705885213       -4.0709852890
 C        -3.4068861162       -5.5092733627       -2.0229367723
 C        -2.6297141178       -4.7602575070       -0.9752013103
 C        -1.5688376092       -5.5962004917        0.0578619593
 C        -0.1684550852       -4.8605575669       -0.1973342109
 C         1.0759514587       -5.7639504317       -0.3735046414
 C        -2.0970930662       -5.2393434583        1.4897446660
 C        -1.5090469979       -7.1281620987       -0.1153860448
 O        -2.8335915647       -3.5742050402       -0.8438831263
 O        -0.0300273804       -3.6086650558       -0.2280432599
 C         2.1324678240       -5.0862425985       -1.2884601403
 C         1.5479445154       -4.9432704548       -2.7416022590
 C         2.3724767275       -4.1076422316       -3.8415194047
 C         1.4489092782       -2.8766768444       -4.1015464869
 C         0.2271501087       -2.9205098670       -5.0702116629
 O         0.5609489459       -5.5464072296       -3.0887315266
 O         1.6839465498       -1.8366294648       -3.5830675485
 C         3.7221856894       -3.5349588170       -3.3654473398
 C         2.6878956520       -5.0347008449       -4.9872756287
 C        -0.5695153279       -1.6621449245       -5.1398342615
 C        -0.6737133488       -0.9338367140       -3.6807134620
 C        -0.2995769129        0.5886587176       -3.5151624950
 C        -0.0129999812        0.8818832655       -2.0028976354
 C         1.5268895463        0.9087198256       -1.5879295279
 C         0.9361971798        0.8424177639       -4.3720737148
 C        -1.5135764455        1.3405442956       -4.0918907852
 O        -1.1060733547       -1.5068306396       -2.6867319689
 O        -0.8686611235        1.1569950587       -1.2477878674
 C         1.6270195527        1.0118766134       -0.0106014886
 C         1.6973066835       -0.3844806736        0.6228943675
 C         2.9843493643       -1.0421064738        1.2551792926
 C         3.8228267501       -1.5695530614        0.0393792469
 C         4.7250158612       -0.7528261278       -0.8524211613
 O         0.7686896556       -1.1534478466        0.3066249098
 O         3.7164630437       -2.7723412435       -0.1714336958
 C         3.7381135424        0.0515508596        2.0817443972
 C         2.5321501286       -2.1675585663        2.1979257675
 H         2.9318507683        3.1270344970        5.4955078405
 H         3.6050766331        2.9357602185        3.8815218770
 H         4.6664890739        3.0031481339        5.2166461232
 H         3.6967411005        7.7539295089        2.2401207288
 H         2.5330839902        7.2661683664        1.2082706492
 H         5.6903968684        7.0961987401        2.5057609892
 H         6.2333380431        6.5230590268        3.9639565462
 H         4.8454833838        7.5074009505        4.1121638422
 H         4.9895957393        3.4277328300        2.6483932871
 H         5.9381993525        4.7379582146        1.9874189034
 H         6.3108045439        4.2024755503        3.6065854986
 H         2.1734386671        7.0460552259        4.2933303422
 H         1.5446622213        8.4549912199        3.2845414593
 H        -1.1038435253        4.0741146140        1.9706637469
 H        -0.5399128547        3.7058465637        3.7287025805
 H         0.4634391482        6.5509970461        6.0790155521
 H         0.1846874257        4.8513455006        5.4527193667
 H        -1.0783744232        5.8953483952        6.0832374669
 H        -1.9859982051        7.8923942048        5.1642858250
 H        -0.5343742331        8.5683949279        4.2614798678
 H        -1.9892251974        8.0125050675        3.3913969066
 H        -3.5190101339        3.6475234388        3.2913582407
 H        -2.5688531398        2.2691975132        3.8320233558
 H        -4.2635845974        1.0922729424       -1.3152450627
 H        -3.1837803050       -0.2562953889       -1.3704996293
 H        -5.1768426870        1.7751314697        3.4307375825
 H        -4.0673819257        0.3810711090        3.5763773937
 H        -5.6481009861        0.1806471979        2.7795305082
 H        -4.6137878946        2.8368257725       -0.0694246330
 H        -6.0136256839        1.8915269779        0.5212062940
 H        -5.4061007580        3.2415418418        1.4847693335
 H        -4.7954852512       -1.8238976278       -0.4070052676
 H        -6.1234369546       -0.7859239545       -0.6355142659
 H        -4.7917784762       -5.0900812051       -3.6682742734
 H        -3.7252552331       -3.8354512723       -3.2007892871
 H        -7.2850671721       -2.6107901762       -0.7019242007
 H        -8.2103080211       -3.3594704004       -2.0492879536
 H        -8.1949886806       -1.5988637812       -1.9036401596
 H        -7.3082281054       -2.1945485691       -4.3698562010
 H        -5.8873547228       -2.9088024095       -4.8487637476
 H        -7.1465251860       -3.9432930651       -4.0359948399
 H        -2.7016081019       -5.8767055832       -2.7256873960
 H        -3.8507948660       -6.4596893583       -1.5763102050
 H         1.6031528943       -5.8785542713        0.6784123828
 H         0.9142750827       -6.7888145520       -0.8192517739
 H        -3.1122605404       -5.3712387536        1.6702219043
 H        -1.8846421784       -4.2349272873        1.7674803128
 H        -1.4292926352       -5.7665547983        2.1454915064
 H        -0.6589471661       -7.4967054024        0.4711149541
 H        -2.4334024492       -7.5549327954        0.3391269430
 H        -1.5802649105       -7.5605013504       -1.1196945078
 H         2.3177069402       -4.1608332187       -0.8728204584
 H         3.0475440658       -5.7362013162       -1.2747012109
 H         0.7646371385       -3.1418498485       -5.9541196472
 H        -0.4183202481       -3.8177568339       -4.9118128963
 H         4.2225744245       -3.0257031807       -4.2620991829
 H         4.3070185188       -4.4192887912       -3.2612899265
 H         3.6925855536       -2.9051764343       -2.5103011343
 H         3.3511342389       -5.8761190783       -4.6617070687
 H         1.7996949808       -5.4949650862       -5.3298638334
 H         3.1902038520       -4.5248873107       -5.7654708133
 H        -1.5112709306       -2.0272091523       -5.4351056361
 H        -0.0906002689       -1.0071719675       -5.8817923478
 H         2.0121485329       -0.0447149948       -1.8223891451
 H         2.1441075404        1.6173006231       -2.1634179357
 H         0.7225565169        0.6033701852       -5.4639004054
 H         1.8044562295        0.2649754396       -4.0459270568
 H         1.2324984207        1.9062660991       -4.2541380216
 H        -1.9466694147        0.7388580564       -4.8958182844
 H        -2.2617979397        1.6538264492       -3.2814256527
 H        -1.0932973990        2.1772379969       -4.6204459886
 H         2.4703324408        1.7892174236        0.1272117096
 H         0.7410487617        1.5073586556        0.5208731018
 H         5.0929591851        0.1336140169       -0.3491693388
 H         5.5537654121       -1.4324348493       -1.0946311958
 H         4.1896808797       -0.6120779851       -1.7547367585
 H         3.9737799115        0.9076749536        1.4626567686
 H         4.5837195391       -0.3135961328        2.5862768951
 H         3.1776630394        0.4961887917        2.8197012128
 H         1.7578330819       -1.8191848915        2.8779635869
 H         2.2148299575       -2.9381352213        1.5953850862
 H         3.2681861488       -2.5893626399        2.8142259009
 Na       -1.3166332601       -1.4913661206       -0.3779695026
