155

 C         3.6855753800        3.6039922154        5.8486074393
 C         2.9635254401        4.7924912290        5.3403625014
 C         3.6549709027        5.8650170086        4.4393255813
 C         3.4447164755        5.3227430131        2.9354630896
 C         2.6965662420        6.0552067283        1.8314534147
 C         3.1193143917        7.3418930633        4.8758551360
 C         5.2194317641        5.8573440455        4.6614665832
 O         1.7994914653        4.9839575734        5.6049050789
 O         4.0947092567        4.2969659621        2.7228348664
 C         1.3817246404        6.7422648439        2.1158949845
 C         0.3027194664        5.7771741962        2.6889843257
 C        -0.9831940755        6.2382780534        3.3010657167
 C        -2.1492074435        5.7299136365        2.3187106188
 C        -2.2555400756        4.2376145720        2.3369296179
 O         0.5323825445        4.5652728573        2.8888127919
 O        -2.6866443276        6.4885090080        1.4733353876
 C        -1.1917457015        5.5991641955        4.6990504644
 C        -1.2296225259        7.8390351507        3.4099845625
 C        -3.7117131842        3.7437173698        2.0882088208
 C        -3.7371602437        2.5122956543        1.2463397954
 C        -3.9995614649        1.0080254272        1.9752250890
 C        -3.8845967809       -0.1059768101        0.8292758374
 C        -4.9000626936       -0.1845602282       -0.2589449783
 C        -2.9270570909        0.7484578026        3.1071350675
 C        -5.3700382361        1.0917063947        2.6008672451
 O        -3.5941339409        2.5461947905        0.0400171260
 O        -2.9039402457       -0.8060826132        0.7704605759
 C        -4.8656090147       -1.4695346904       -1.0600213562
 C        -5.5323216965       -1.2818592803       -2.4394094243
 C        -5.8363575056       -2.5734611907       -3.2089809553
 C        -5.2267213227       -3.8048462893       -2.3568761542
 C        -3.8101368480       -4.3826454319       -2.7422957533
 O        -5.8275988575       -0.2119445662       -2.9951792997
 O        -5.8779112744       -4.3568961655       -1.5230248230
 C        -7.3916906914       -2.6681485444       -3.4067445484
 C        -5.1899227282       -2.4725937990       -4.6729143879
 C        -3.3804116051       -5.4693244859       -1.7700865440
 C        -2.5555478868       -4.8350794049       -0.7669569943
 C        -1.3984511722       -5.6740065709       -0.1937809585
 C         0.1036056493       -5.0385354515       -0.7554581470
 C         1.2441113348       -6.0962289418       -1.1225312598
 C        -1.2557276570       -5.4552666271        1.2673103081
 C        -1.4256092454       -7.2824915753       -0.4445492099
 O        -2.7502738907       -3.6917752183       -0.3641646583
 O         0.2063902534       -3.8807265281       -0.9119235587
 C         2.5162820773       -5.6592491064       -1.8786170036
 C         2.1606003399       -4.8968485435       -3.2206078425
 C         3.2462784485       -3.9911038427       -3.8961458993
 C         2.3377318239       -2.6712427362       -4.2501362642
 C         1.4893405007       -2.5344742065       -5.5842311416
 O         1.0703422035       -4.9592507099       -3.6777936530
 O         2.2721386336       -1.7515036474       -3.4444354929
 C         4.4380464259       -3.7193066976       -2.9682979676
 C         3.7517794608       -4.7834504846       -5.1152642611
 C         0.4035752477       -1.4837662042       -5.5184707858
 C        -0.1216815049       -1.2203686761       -4.0452604122
 C         0.0406826437        0.2876171853       -3.4903204826
 C         0.0257829536        0.3629594821       -1.9150819981
 C         1.2075698072        0.9753207284       -1.0204322675
 C         1.1947046896        1.1389083026       -4.1809470838
 C        -1.3686786266        1.0373811487       -3.9123973211
 O        -0.8409945763       -1.9364208154       -3.4106703688
 O        -0.9715432800        0.0845183185       -1.3083679730
 C         0.9655634549        0.8811038170        0.4787959951
 C         1.3421593639       -0.4798119835        1.0881230279
 C         2.7239863114       -0.5369523994        1.9292198271
 C         3.8284308531        0.2670808535        1.1650379814
 C         4.8919445825        1.1258223468        1.8073761507
 O         0.7489229601       -1.5039228313        0.8291534506
 O         3.8471103057        0.2008755821       -0.0616983227
 C         2.3397731191       -0.0293241565        3.3290431344
 C         3.0676331497       -2.0037925334        2.0012438107
 H         3.1336153015        3.1512338819        6.6588218089
 H         3.8087635706        2.9338455562        4.9750695359
 H         4.6969547801        3.7923008235        6.2322742544
 H         3.3964589246        6.8342390737        1.4605563736
 H         2.5951731689        5.4177056477        1.0105864329
 H         3.5484524949        8.1004298599        4.1132070167
 H         3.3532965862        7.5178683561        5.8977290074
 H         2.0798257060        7.3811215815        4.6774638434
 H         5.6754635910        4.8858207430        4.6043233444
 H         5.8330946460        6.4015599187        3.9313498874
 H         5.4983574285        6.4048955151        5.5457936139
 H         1.4064505245        7.4437082582        2.9870949971
 H         1.1072819234        7.2599795652        1.1456504852
 H        -1.7437419206        3.8841372423        1.4548583972
 H        -1.7099445459        3.7815793270        3.2349434679
 H        -0.7678858069        6.3005691322        5.3492759472
 H        -0.6893242403        4.7068667416        4.8603218372
 H        -2.2238737577        5.3898291187        4.8911663249
 H        -1.8084226205        8.0061605741        4.2859138183
 H        -0.3217563270        8.4603472152        3.5765515745
 H        -1.7257173987        8.1929055381        2.5552329750
 H        -4.1673746064        4.4966337834        1.4699404253
 H        -4.1778702656        3.6219751312        3.0609567692
 H        -5.9915184132        0.0593420493       -0.0417906082
 H        -4.7008530502        0.6306245883       -1.0227732389
 H        -2.9668678653        1.4250498130        3.9399644553
 H        -1.9810410554        0.7761042030        2.4819834824
 H        -3.1021434480       -0.2866945324        3.4496598672
 H        -5.8383913056        1.9988723076        2.4011987550
 H        -5.9899157690        0.2595234533        2.3569673518
 H        -5.3681860451        1.0985426878        3.7135764236
 H        -3.8190697133       -1.7909548523       -1.2210370836
 H        -5.3322455599       -2.2079895213       -0.3983526676
 H        -3.8715687352       -4.6337809073       -3.7919282242
 H        -3.1676584234       -3.5108469743       -2.7388221914
 H        -7.9114928538       -2.7974449311       -2.5123859183
 H        -7.5984812392       -3.4854151941       -4.0186649080
 H        -7.6356496544       -1.8142395401       -3.9312148804
 H        -5.5422300053       -1.6283879198       -5.2488173612
 H        -4.0748108694       -2.4201738593       -4.4739936872
 H        -5.3230686616       -3.3081064780       -5.2851214613
 H        -2.8160585241       -6.2928493127       -2.2101924526
 H        -4.3267948008       -5.9019232169       -1.3664221661
 H         1.5951983874       -6.5937548688       -0.2808125689
 H         0.7843018501       -6.9253991148       -1.5378302482
 H        -2.0114928797       -5.9134781833        1.7462448129
 H        -1.4544769427       -4.4850600110        1.5566726095
 H        -0.2667263185       -5.6458466327        1.6744587575
 H        -0.5857532322       -7.6664548207        0.2696738565
 H        -2.3100769344       -7.7282908817       -0.0591883648
 H        -1.1257292745       -7.5515329363       -1.4461820172
 H         3.1234498238       -5.0546068886       -1.1973262036
 H         3.1957117677       -6.5018387720       -2.0009164759
 H         2.1902168069       -2.1672382499       -6.3503027492
 H         1.0545641685       -3.4202311788       -5.9267180500
 H         5.1092890602       -2.9588754041       -3.2354750066
 H         4.9382999567       -4.6662623165       -2.7086089703
 H         3.9832664237       -3.2929281605       -2.0631502723
 H         4.1746740675       -5.7188476374       -4.8148654427
 H         3.0905572016       -4.9175297053       -5.9979406871
 H         4.6046036204       -4.2193520289       -5.4487790217
 H        -0.4167335259       -1.9082902414       -6.1441958914
 H         0.7741840305       -0.5543720311       -5.8250018125
 H         2.0012142589        0.3703749518       -1.4430843630
 H         1.4637412708        2.0076330759       -1.2622695984
 H         1.0199387458        1.4665312784       -5.1608387095
 H         2.1610500327        0.6215654124       -4.0889402448
 H         1.1392318112        2.0344703628       -3.5877190573
 H        -1.3508718985        1.3489613079       -4.9092135277
 H        -2.2842549177        0.5419389320       -3.7607809421
 H        -1.4091861925        1.9252553119       -3.3202797372
 H         1.4628440649        1.7450321287        0.8789785449
 H        -0.0209530632        0.9869850202        0.7331030153
 H         5.0420851312        2.0199076104        1.2085552692
 H         4.5757748573        1.3022963218        2.8114108461
 H         5.7626308608        0.4205418355        1.7396681565
 H         2.7099809316       -0.6806603371        4.1420942133
 H         1.2433008963        0.0100980177        3.2448652880
 H         2.7172140380        1.0312192332        3.4748502890
 H         2.4700787714       -2.5236331042        2.7922490106
 H         3.2152148566       -2.5427387038        1.0726333457
 H         4.0511101136       -1.9464846173        2.5059335591
 Na       -1.2572276377       -1.9279528205       -0.7201627075
