155

 C         4.0521080992        3.9827181481        6.5243449620
 C         2.9871372302        4.8579919923        5.9101157858
 C         3.2098162097        5.8354133291        4.6113473779
 C         2.9226598368        4.8795742473        3.4373012802
 C         2.5417454759        5.4033571767        2.0014680173
 C         2.3794005844        7.1877831980        4.7744600746
 C         4.7483677393        6.1776296269        4.3994157398
 O         1.9215339159        4.9221528077        6.4364945604
 O         3.1399420988        3.7071545266        3.6015717460
 C         1.3732957650        6.3449077835        1.9538626117
 C         0.2306510406        5.5944395644        2.7916810509
 C        -1.1714390964        6.3032063075        3.1007057431
 C        -2.2289031895        5.9242812726        2.0160762109
 C        -2.3613460338        4.4665625390        1.5588379636
 O         0.3572156439        4.4484579421        3.0634566628
 O        -3.0747935873        6.7477697692        1.5443703504
 C        -1.6677851373        5.6599626296        4.5454846195
 C        -1.0440010756        7.8220810477        3.2651753826
 C        -3.7686006980        3.7980807860        1.7838063028
 C        -3.9513713041        2.4429524921        1.0485398250
 C        -3.6754531337        1.1897182884        1.8391583548
 C        -3.5765746205       -0.0221963179        0.8858450879
 C        -4.6617013053       -0.1835299694       -0.2040732297
 C        -2.2770082678        1.2162570687        2.6539969002
 C        -4.8292530686        0.9816351798        2.7884322537
 O        -4.3713426412        2.4518651888       -0.0950674898
 O        -2.5949965967       -0.7261855954        0.9099760076
 C        -4.9952524911       -1.6026713593       -0.7500131529
 C        -5.4775728440       -1.4183369913       -2.2087198485
 C        -5.7186818597       -2.6039467222       -3.1383608603
 C        -5.0386544456       -3.8860350460       -2.5045251919
 C        -3.5983530481       -4.3743539025       -3.0053725837
 O        -5.6699949756       -0.3245550486       -2.7500704929
 O        -5.6213497409       -4.5147834931       -1.6442873635
 C        -7.2486783953       -2.8837583157       -3.1853646251
 C        -5.1752934077       -2.2797810395       -4.5834037275
 C        -3.1587142556       -5.6109020590       -2.1569696111
 C        -2.4202676690       -5.0657414265       -0.9678854259
 C        -1.4348639328       -5.9416009182       -0.2308654561
 C        -0.0008986858       -5.3309417181       -0.9756483574
 C         1.1716443918       -6.2506581858       -1.3801452562
 C        -1.3628923654       -5.6646649577        1.2780224710
 C        -1.3901132746       -7.5119736906       -0.4154409417
 O        -2.5778820108       -3.9539922502       -0.5612833280
 O         0.1075456371       -4.1429013977       -1.0144869720
 C         2.5285877676       -5.5704833201       -1.7945277410
 C         2.2909343938       -4.8969968271       -3.1380518366
 C         3.3823777165       -3.9440621321       -3.8361810629
 C         2.6237642275       -2.6393167023       -4.3112454848
 C         1.5668533526       -2.6814184163       -5.4005564376
 O         1.2489990209       -5.1506278196       -3.7075431298
 O         3.0329671443       -1.5878472828       -3.8303847006
 C         4.6123337408       -3.6993149826       -2.9339549675
 C         3.9510906920       -4.6595462262       -5.0452520767
 C         0.9078575473       -1.2806612580       -5.5393519745
 C         0.1995114452       -0.8921494365       -4.2638289697
 C         0.1530653694        0.6570100280       -3.8352429023
 C        -0.0244626522        0.4578951805       -2.3072104350
 C         1.1677864498        0.8222515079       -1.3637843481
 C         1.3233253555        1.5380525715       -4.2040096770
 C        -1.3093699656        1.2762192625       -4.3974655136
 O        -0.3767644210       -1.6923261565       -3.5925796381
 O        -1.0560538561        0.0112799693       -1.8657352860
 C         0.8070220059        0.7124533225        0.1242415023
 C         1.3586441321       -0.4580158890        0.8579579387
 C         2.3970269073       -0.3427444897        1.9891545743
 C         3.5438949585        0.6036494921        1.6126895733
 C         4.5599794619        0.9137508412        2.7347343864
 O         0.9087247290       -1.5492263271        0.5739849559
 O         3.6204774504        1.1347899905        0.4913401640
 C         1.6688898594        0.1663013632        3.2133178313
 C         3.2169006982       -1.6898984069        2.2372875866
 H         3.6001951942        3.0196393326        6.4203288438
 H         4.9925286282        3.8777443205        6.1719842939
 H         4.1052089738        4.3140489893        7.5577687192
 H         3.3980044041        5.9450062717        1.6761210514
 H         2.4689780210        4.5637381361        1.2479489986
 H         2.5869279955        7.8150000147        3.9478060328
 H         2.7967362891        7.7201958485        5.6666875926
 H         1.3681267242        6.9990508399        5.0635434179
 H         5.5428486944        5.3860819330        4.4382764533
 H         4.8498951352        6.6522615231        3.4386164267
 H         5.1256211262        6.8729040887        5.1592510290
 H         1.6072247369        7.3234140072        2.2217748913
 H         0.9241831796        6.3512970409        0.9760852214
 H        -2.0692027515        4.4692817214        0.4797850903
 H        -1.7547967485        3.8331168750        2.1430301192
 H        -0.7984572623        5.3641112304        5.0854213741
 H        -2.3178876447        4.7966754892        4.3531473141
 H        -2.1904425694        6.5320556868        4.9974975592
 H        -1.7081412719        8.3208724557        2.5644957092
 H        -1.3716081716        8.1467983549        4.2475304738
 H        -0.0658056961        8.2473844021        3.1178873494
 H        -4.5714418533        4.4670494013        1.3160165639
 H        -3.9335457650        3.8418329995        2.8731830516
 H        -5.6218378441        0.2485939391        0.0419496741
 H        -4.2670641322        0.4377882526       -1.0670841364
 H        -2.2692900134        2.1702174407        3.3017875155
 H        -1.5090671316        1.3111247511        1.8566043977
 H        -2.1331460758        0.2794742735        3.1590953144
 H        -5.2791887466        0.0467365606        2.5247459620
 H        -4.6031153851        0.9289993253        3.8145792394
 H        -5.6897086741        1.7107046021        2.7243612592
 H        -4.1161825558       -2.2919235193       -0.6479626470
 H        -5.6371117496       -2.1561440840       -0.0538302909
 H        -3.7073829413       -4.7205362811       -3.9606850167
 H        -2.9325901763       -3.4986295264       -2.9132851842
 H        -7.6794376138       -3.1768344263       -2.1632131416
 H        -7.4832837417       -3.5979325708       -3.9307892377
 H        -7.7084362037       -1.8470313225       -3.4600832290
 H        -5.5539664022       -1.3365585331       -4.9756853157
 H        -4.1455532523       -2.2331768570       -4.7012214537
 H        -5.5406914401       -3.1349759961       -5.2565659652
 H        -2.6023810823       -6.3340161182       -2.7905884744
 H        -4.0390642161       -6.2049988334       -1.8193683933
 H         1.3208735152       -6.7366964004       -0.3753818616
 H         0.8753565986       -7.0371007410       -2.0457128396
 H        -1.9484716179       -6.3675554074        1.9003380368
 H        -1.7174504333       -4.6775022030        1.4799427177
 H        -0.4035587666       -5.8222370135        1.7781317760
 H        -0.5478601867       -7.9800313606        0.0831802053
 H        -2.3196231400       -8.0190338823        0.0297717777
 H        -1.2619671727       -7.7611223576       -1.5340770268
 H         2.7635034313       -4.8490197420       -1.0242600147
 H         3.3222081615       -6.3644885524       -1.9090658702
 H         2.0860022234       -2.9426706305       -6.2932925604
 H         0.8261533771       -3.5274336458       -5.2255952293
 H         5.2528479297       -2.9894085916       -3.4002583439
 H         5.2518881202       -4.5545896791       -2.7506828491
 H         4.3071814037       -3.3268388123       -1.9341498073
 H         4.4716919025       -5.5087730957       -4.7167557766
 H         3.1281844371       -5.0125649951       -5.6052481708
 H         4.6176666846       -4.0166467734       -5.6826096581
 H         0.2232253895       -1.0125273060       -6.3569295051
 H         1.8401579937       -0.6139596142       -5.5927166234
 H         2.0984478746        0.3847342812       -1.6462988314
 H         1.2221487138        1.8251769968       -1.7286143092
 H         1.4197039462        1.6219371269       -5.2827690330
 H         2.2902267808        1.2740525391       -3.7901774312
 H         1.0213272718        2.5051207552       -3.7846630086
 H        -1.3444120469        1.4333237310       -5.4458399637
 H        -2.0804993454        0.5930444725       -4.1852103384
 H        -1.6745156401        2.2003209133       -3.9449722840
 H         1.1177220703        1.5953086474        0.7649347971
 H        -0.2777268940        0.7281453995        0.2956083969
 H         5.4085402771        0.2256632019        2.5766093301
 H         4.8662999614        1.9207541149        2.5123806024
 H         4.1042027172        0.7100511113        3.6986984786
 H         2.2582085608       -0.2020856651        4.0169957709
 H         0.6576940942       -0.2633094959        3.4521412915
 H         1.6100807048        1.2423850254        3.1425129762
 H         2.5874651729       -2.3981630283        2.6527208249
 H         3.3857056413       -2.1009015315        1.2078096006
 H         4.1955810166       -1.6399338000        2.7310329734
 Na       -1.2486929311       -2.0176049714       -0.3921391242
