155

 C         4.4949995302        4.1760208928        6.5652564388
 C         3.3185260957        5.1188863634        6.8728879866
 C         2.6603409021        5.7983543315        5.6984916054
 C         1.9926056790        4.6138326050        4.7624048444
 C         1.8843873309        4.7690471669        3.2083268503
 C         1.5371346351        6.8200780870        6.2834076198
 C         3.6436039731        6.5949462899        4.8784254250
 O         2.9446185249        5.3339053051        7.9958470674
 O         1.5012987450        3.6103610164        5.2358283876
 C         0.8498492616        5.8966111771        2.8925164014
 C        -0.5832719728        5.2972444423        3.1263226636
 C        -1.7951872984        6.2937998369        2.8970034480
 C        -2.6419521142        5.8809182385        1.6834918415
 C        -2.4527126084        4.4806439780        0.9956449355
 O        -0.7756386402        4.1696464660        3.5211540391
 O        -3.3610146914        6.6453481301        1.1619254889
 C        -2.7120209537        6.2361517733        4.1619541917
 C        -1.4254119628        7.7347375353        2.6553880220
 C        -3.4705629773        3.4479151458        1.7087599686
 C        -3.7685060342        2.3190142426        0.6958995217
 C        -4.1075305493        0.7785905194        1.1782217416
 C        -3.3772877843       -0.0870569051        0.1946749174
 C        -3.8891440983       -0.3782186210       -1.2891668229
 C        -3.6713557004        0.5120949724        2.6381650761
 C        -5.7083808729        0.6851891921        1.0450176151
 O        -3.8316481517        2.6134019551       -0.4872739738
 O        -2.3123602176       -0.5722614731        0.5493645730
 C        -4.5743978145       -1.7461313050       -1.2880104512
 C        -5.1707242460       -2.1304322523       -2.7205657550
 C        -6.0930914691       -3.5795897253       -2.8148364452
 C        -4.9126516306       -4.7109626616       -2.6124563261
 C        -3.9718528517       -4.9393873110       -3.7827462851
 O        -4.8028156857       -1.5358860670       -3.7049387069
 O        -4.6621388252       -5.2168781062       -1.5460416977
 C        -7.1023910993       -3.6750300711       -1.6280199423
 C        -6.8000285916       -3.5637795309       -4.2028849408
 C        -2.6450060377       -5.6259433195       -3.3026773016
 C        -2.0964871107       -4.8060903288       -2.1445621550
 C        -1.2678843698       -5.5290825224       -0.9819324558
 C         0.1403027907       -4.8572259983       -1.0503207339
 C         1.4632188949       -5.7136783128       -1.3776382693
 C        -1.9915743313       -5.1121538675        0.4015280700
 C        -1.3330235070       -7.1046469257       -1.1719862678
 O        -2.3329650236       -3.6196766961       -2.1270285236
 O         0.2712285268       -3.6885384405       -0.7981040301
 C         2.6811326515       -4.8273817828       -1.8117728932
 C         2.9835472256       -5.1691802073       -3.2741623211
 C         3.9491693208       -4.2401872817       -4.0758500338
 C         3.3092185191       -2.8768650335       -4.3009574933
 C         2.0187902557       -2.7806274533       -5.0867429326
 O         2.3534757783       -5.9961865552       -3.8124083035
 O         3.8507297738       -1.8993157833       -3.8484435315
 C         5.2973646917       -3.9871905679       -3.3204782846
 C         4.3722114501       -4.7557965004       -5.4912953727
 C         1.3292868686       -1.3886426013       -5.1308858373
 C         0.7019436264       -0.9625741602       -3.7465610603
 C         0.7760666962        0.5986890643       -3.5740851184
 C         0.1915029284        1.0281370910       -2.2264888674
 C         1.0607345008        1.6589819079       -1.0738215441
 C         2.1202613321        1.2978636632       -3.7200410239
 C        -0.1498269251        1.1742151150       -4.6747731237
 O         0.5165548631       -1.8312218024       -2.9383717683
 O        -0.9238762076        0.6637561334       -1.8944827661
 C         0.6291996162        1.3526714518        0.3788792085
 C         1.1435539274        0.1179246684        0.9918774767
 C         1.9910524443        0.2307921013        2.2666912604
 C         3.1812977663        1.3624163070        2.0569432064
 C         3.9837246172        1.7109366800        3.2301488117
 O         0.9327599426       -0.9690885331        0.5375944949
 O         3.4556864499        1.7141571833        0.9435100293
 C         1.0459901866        0.7610006824        3.3482433206
 C         2.7662830389       -1.0447304564        2.6357223136
 H         4.2332663988        3.1375762643        6.8209533576
 H         4.6791167978        4.2035322392        5.4472702981
 H         5.3668270774        4.4295889325        7.2072802521
 H         2.8253640355        4.8889233692        2.7124163147
 H         1.4849926586        3.8589814141        2.7273026997
 H         1.2207263274        7.5674147047        5.5367404342
 H         2.0847666219        7.5461021256        6.9268267801
 H         0.8027415349        6.3506174301        6.8124695574
 H         4.5529243280        6.0212469115        4.6535827896
 H         3.0753622021        7.0759988975        4.0930220665
 H         3.9682408229        7.4118355924        5.5206208985
 H         1.0188278253        6.8149739375        3.5443911847
 H         0.9069914316        6.3202245176        1.8104796173
 H        -2.7338610827        4.5514295176       -0.0972874935
 H        -1.5184405770        4.0802141010        1.1672293455
 H        -2.3043691869        6.8475785224        4.9807194620
 H        -2.6950947478        5.2044558386        4.5716973486
 H        -3.7936298602        6.5627674932        3.9992299896
 H        -0.5360574328        7.7742781007        2.0114870382
 H        -2.2341960968        8.4305010577        2.2890571925
 H        -1.0752061905        8.1398636056        3.6275413808
 H        -4.4263429713        3.8995002928        1.9464736012
 H        -3.0026593622        3.1319550127        2.6251819970
 H        -4.5645001616        0.3979050822       -1.7189204294
 H        -3.0557403961       -0.4220596431       -1.9979488795
 H        -4.1008069624        1.1386559841        3.3920874817
 H        -2.5787228889        0.5408674503        2.8058908231
 H        -3.9432723368       -0.4532855727        2.9049046773
 H        -5.8523408924        0.3346770832        0.0358783305
 H        -6.0560278879       -0.1239111425        1.6644251640
 H        -6.1734121437        1.7236304306        1.2973773082
 H        -3.8750956490       -2.5335795835       -1.1197482902
 H        -5.3449410468       -1.6810356812       -0.5074262600
 H        -4.4469291072       -5.4870266460       -4.5283103374
 H        -3.6291059864       -4.0024251782       -4.2532712326
 H        -6.5852754575       -4.2540882444       -0.8153232764
 H        -8.0171694393       -4.0727078278       -1.9383627074
 H        -7.3335586092       -2.7202244641       -1.1000265326
 H        -7.5214114708       -2.7697440664       -4.4073071613
 H        -6.0681504799       -3.5943193868       -4.9910186301
 H        -7.3295080224       -4.5374918856       -4.2519610822
 H        -1.8320724030       -5.5344433027       -4.1242404279
 H        -2.8041723245       -6.6428000012       -3.0730847569
 H         1.6626786644       -6.1497455387       -0.4590275067
 H         1.3125758577       -6.5266292649       -2.0174651173
 H        -2.9326766427       -5.5481370418        0.3721164477
 H        -1.9951367657       -4.0231950288        0.4217952742
 H        -1.4796152040       -5.6033751576        1.2647356157
 H        -0.7127678307       -7.5065422346       -0.3784847096
 H        -2.3409651671       -7.4192533026       -1.0994919073
 H        -0.9621243588       -7.5456109710       -2.0797609485
 H         2.4617424418       -3.7222349557       -1.6472661144
 H         3.4883305043       -4.8755315836       -1.1295819673
 H         2.2523509233       -2.9290336687       -6.1623497344
 H         1.3085206966       -3.5052847008       -4.7964241228
 H         6.0621166701       -3.8341125693       -4.0157290923
 H         5.6809916350       -4.8563540383       -2.8018035255
 H         5.1386793592       -3.1502372787       -2.6224022899
 H         5.0356290019       -5.5661753273       -5.3470036586
 H         3.4927227921       -5.1462160852       -5.9593003684
 H         4.8901466771       -4.0394900547       -6.2048062066
 H         0.5905999497       -1.4689573063       -5.8834627654
 H         2.1977998828       -0.7566963815       -5.2819423101
 H         2.1075537938        1.4265663775       -1.2328254690
 H         1.0201392684        2.7186097863       -1.2191159347
 H         2.5451821265        1.1442761007       -4.7432804470
 H         2.9336282271        1.0327149257       -3.0378636448
 H         1.9803915499        2.3887184648       -3.6696663642
 H         0.1096861795        0.8403294030       -5.7168468651
 H        -1.2599876360        0.9358512457       -4.5059897167
 H        -0.1823452412        2.2965468260       -4.8566895366
 H         0.7894428035        2.2034757709        1.0110519695
 H        -0.3883856670        1.2636838316        0.1790343704
 H         4.7697281810        0.9348737675        3.4109664146
 H         4.5126425778        2.6127491764        3.0496963385
 H         3.3296561718        1.8404115392        4.0993100061
 H         0.1425214777        0.3099923503        3.5641032081
 H         0.8581294090        1.8360320766        3.2726298941
 H         1.6156065490        0.7148172416        4.2751322119
 H         2.1335337334       -1.8310173819        2.8438985105
 H         3.4373774656       -1.2564181496        1.7928439780
 H         3.3984058997       -0.8337016728        3.4823513056
 Na       -0.8949854172       -1.5006647388       -0.9883484743
