155

 C         4.8415299015        4.7780642725        6.4614859187
 C         3.6000889830        5.2941424259        7.1918419403
 C         2.1794550349        5.6871106534        6.4598293644
 C         2.1351250577        4.9834418619        5.0432772693
 C         1.6211399060        5.7804444871        3.8736685659
 C         0.9972145326        5.3207388480        7.3345223788
 C         2.2823100119        7.2690599882        6.3218366825
 O         3.5851736797        5.5428023355        8.4037209779
 O         2.4659656480        3.8042031639        4.9801209476
 C         0.1951541784        6.3052990249        3.8266091108
 C        -0.8061808386        5.4739605276        2.9655044880
 C        -2.2817575817        5.9147579317        3.1036625946
 C        -3.2500953431        5.5812074873        1.7728953894
 C        -2.6970263081        4.6917678247        0.6153314408
 O        -0.3442469281        4.4894244895        2.4079713961
 O        -4.3522492968        6.0754962974        1.6674803042
 C        -2.8977383684        5.2679735110        4.3676326800
 C        -2.4198858795        7.5277253380        3.1447030543
 C        -2.8821847805        3.1877975759        0.9504176094
 C        -3.3423029703        2.2854982068       -0.2485681637
 C        -4.3556321440        1.0246890523        0.0179386110
 C        -3.6379457616       -0.1803384311       -0.7346172567
 C        -4.0492848647       -0.7671563992       -2.0606375032
 C        -4.5794659320        0.6526751669        1.5024991774
 C        -5.8056688225        1.1661287984       -0.5491462859
 O        -3.1994914728        2.6153648296       -1.3915573742
 O        -2.7220829417       -0.7110418892       -0.1059092407
 C        -4.7902074937       -2.0935413780       -1.7474821318
 C        -5.5354818124       -2.7555591186       -3.0406991190
 C        -6.1534520361       -4.1637913545       -2.7761277825
 C        -4.9054845362       -5.2645485191       -2.6744196248
 C        -3.6974580467       -5.1466108980       -3.7235214882
 O        -5.6286607664       -2.2431046221       -4.1173475157
 O        -4.9948852002       -6.1325979983       -1.8372507351
 C        -6.8820747004       -4.2631242572       -1.3924511725
 C        -7.0669698278       -4.6178714695       -4.0085090783
 C        -2.4594952712       -5.7038811232       -3.0057091678
 C        -1.9588766554       -4.6636050277       -1.9819504933
 C        -1.1054872272       -5.0724219713       -0.8012224125
 C         0.3082206351       -4.5775609323       -0.9940003084
 C         1.2921356061       -5.4008995548       -1.8093073310
 C        -1.7100395617       -4.4414252440        0.4977816422
 C        -1.0884249061       -6.6301065936       -0.7502819640
 O        -2.1353435272       -3.4629727088       -2.1427892127
 O         0.7052133644       -3.4519618046       -0.6399631863
 C         2.5416254658       -4.6305595864       -2.1030371694
 C         3.0598580075       -4.9865330061       -3.5329378976
 C         4.2594060862       -4.2438548950       -4.0701142001
 C         3.7773963046       -2.6252969891       -4.2364767577
 C         2.7184639137       -2.3698213815       -5.2910632322
 O         2.3481549420       -5.7860890489       -4.1959292611
 O         4.0640306154       -1.7809429318       -3.4429912378
 C         5.4237725305       -4.2419932962       -3.0867297077
 C         4.7124987521       -4.8675859448       -5.4245030459
 C         2.1031155025       -1.0234612953       -5.1298771707
 C         1.6250070485       -0.7035589892       -3.7029328442
 C         1.5478017641        0.8533935177       -3.2629627865
 C         0.5876356368        0.9409475357       -2.0071212720
 C         1.1759431168        1.6551009786       -0.7737738765
 C         2.9896946285        1.5679988135       -3.1090279732
 C         0.7803051251        1.5483394423       -4.4712000700
 O         1.1783343214       -1.5868827282       -2.9966045247
 O        -0.5237225886        0.4890982119       -2.0909568171
 C         0.3514563301        1.5284141836        0.5627541373
 C         0.8626446078        0.2448214106        1.2352699114
 C         1.6078289032        0.2978775919        2.5953614362
 C         2.8376848205        1.3647909762        2.3694116862
 C         4.0074068882        1.3308505490        3.4076446145
 O         0.4381886655       -0.8381568497        0.8297256354
 O         2.8999172506        2.0418832332        1.3508866712
 C         0.6498762585        0.9588604565        3.7433336023
 C         2.1933005477       -1.1141008641        2.9569646289
 H         4.8141914759        3.6868704845        6.3726769398
 H         4.8507878421        5.1828034751        5.4435758431
 H         5.8112116616        5.0642751180        6.9196062700
 H         2.2167439137        6.6745025859        3.7018768685
 H         1.7034762808        5.2080757509        2.9182613506
 H         0.0566975615        5.5825286929        6.8983239136
 H         1.0723870082        5.7806289792        8.2785025638
 H         1.0405588697        4.2496370468        7.6068537137
 H         3.0184493298        7.5511681547        5.5325069864
 H         1.3167836993        7.6070955051        5.9409795710
 H         2.4855906701        7.7250538691        7.3078042692
 H        -0.1082396322        6.4765112926        4.7897737874
 H         0.1999664124        7.2271489086        3.2831230625
 H        -3.3320957012        4.8731775548       -0.3136612564
 H        -1.7021805150        5.0481119642        0.2648338125
 H        -2.4150206917        5.6881269567        5.2616573899
 H        -2.8528143979        4.1951680455        4.5159354848
 H        -3.9189308074        5.4800044206        4.3438686962
 H        -3.4064594656        7.7362522589        3.5997384161
 H        -1.6368123995        8.1195671083        3.6747652827
 H        -2.5712336193        7.7529596602        2.0818855481
 H        -3.6113767283        3.0174242831        1.7917429494
 H        -1.8899960831        2.8131764522        1.2855187749
 H        -4.7772026510       -0.2611422235       -2.6519259207
 H        -3.0809576972       -0.8713698244       -2.6070019534
 H        -4.9188659167        1.4775524470        2.1160251730
 H        -3.6752587764        0.2782096622        1.9980094253
 H        -5.3751774559       -0.1320105737        1.5998410294
 H        -5.7595024867        1.6490255023       -1.5173675011
 H        -6.1818183896        0.1357271207       -0.6940862823
 H        -6.4079903629        1.7014066872        0.0725407822
 H        -4.1534778182       -2.8012365486       -1.1455915531
 H        -5.6308208223       -2.0105205138       -1.0151884891
 H        -3.8309111605       -5.6481811114       -4.7040434912
 H        -3.3891078122       -4.0827116308       -3.9569937595
 H        -6.3216536901       -3.8653870201       -0.5894326869
 H        -7.1395712663       -5.3414845944       -1.1119948242
 H        -7.7583692737       -3.7105811073       -1.4270963879
 H        -8.0261884091       -4.1189309858       -3.9454823797
 H        -6.6303556147       -4.1900144758       -4.9446063336
 H        -7.2004774485       -5.6608266841       -4.0433558811
 H        -1.6435019192       -5.9642497665       -3.6727671622
 H        -2.7641035141       -6.6352198477       -2.5552113356
 H         1.6452310656       -6.3882402555       -1.2935090008
 H         0.7937296376       -5.5828629385       -2.8241132222
 H        -2.6682326873       -4.9570205800        0.4964461702
 H        -1.9037591725       -3.3950732592        0.3834178993
 H        -1.0918116698       -4.6492639277        1.2959490862
 H        -0.2566556905       -6.8741852874       -0.0250815266
 H        -2.0215536464       -6.9780894104       -0.2744466178
 H        -0.8803147702       -7.1282756252       -1.7094154072
 H         2.2944664593       -3.5580433094       -2.0376881133
 H         3.2695157298       -4.9623624994       -1.4062492937
 H         3.1544272325       -2.6282490509       -6.2574021676
 H         2.0009056279       -3.2273338197       -5.1428609763
 H         4.9908825404       -3.8539007044       -2.1584113192
 H         6.0968746795       -3.4205243980       -3.4085916545
 H         5.9315770092       -5.2203684314       -2.9236114569
 H         5.0367203541       -5.9256368739       -5.2648314350
 H         3.9439417201       -4.8276598003       -6.2795398003
 H         5.5638388766       -4.3369522465       -5.7972732648
 H         1.2947637059       -0.8329457637       -5.8579997759
 H         2.8190385341       -0.2216206993       -5.4695504495
 H         2.1219711045        1.0614637500       -0.7214534584
 H         1.3126078109        2.7448133775       -1.0538109238
 H         3.6687056502        1.5830271429       -3.9026613702
 H         3.5200056272        1.0091166312       -2.3092223253
 H         2.7883411342        2.5747684314       -2.6661665707
 H         1.2149389551        1.2829610808       -5.4489011257
 H        -0.2210791493        1.1519606362       -4.5161914099
 H         0.6271040096        2.5916864721       -4.3195480104
 H         0.8260825583        2.4107014874        1.1531671314
 H        -0.7527500684        1.6091644527        0.5998983397
 H         4.2048940629        2.3803504047        3.6261404336
 H         3.8611723101        0.8734186473        4.3980741762
 H         4.9538490089        0.9669345479        2.9583384122
 H         1.2762563369        1.0736722037        4.7044856335
 H        -0.3870507826        0.5914385140        3.8723827100
 H         0.5234137362        1.9990633780        3.3894890918
 H         1.8326627946       -1.8853165397        2.2196112505
 H         3.2457987131       -1.0422920969        2.9157484102
 H         1.9992913260       -1.5242734356        3.9468551228
 Na       -0.8012224613       -1.6246760312       -1.0962885095
