155

 C         3.6554330799        5.4295054314       -4.0945596201
 C         3.1580723800        5.7448545117       -2.6756655009
 C         1.6129735301        6.1059481074       -2.2994121036
 C         1.1449123642        4.8377082288       -1.5042469547
 C         0.1776352128        5.2684875968       -0.2979975946
 C         1.8156638007        7.4959598982       -1.7310734595
 C         0.7527723003        6.0123276507       -3.7104980801
 O         3.9318461100        5.7318625304       -1.7290434076
 O         1.4161617460        3.6785920061       -1.9060588433
 C        -0.3438232606        4.0981966969        0.5117375094
 C        -1.1637559635        4.4862746829        1.8034766052
 C        -2.5495246556        3.6156762130        2.1507728149
 C        -2.0724069605        2.1392035623        2.6336750192
 C        -2.2232889645        1.5952420141        4.0362965538
 O        -0.8934784540        5.3965045600        2.5549678571
 O        -1.1287579937        1.7336275337        1.9630078399
 C        -3.4297878924        4.2121343657        3.1189397221
 C        -3.2600541167        3.3875050578        0.7042152710
 C        -1.5452688852        2.4730405432        5.0221234614
 C        -0.0684880657        2.1045884041        5.4749794284
 C         0.3796252447        2.5184300195        6.9616797538
 C         1.8300640402        2.0329609927        7.4401313135
 C         1.9774965750        0.6065493566        7.8859363665
 C         0.3722834463        4.0966502488        6.9290965839
 C        -0.7043877683        2.1482133203        8.0707227545
 O         0.6768247566        1.5422416873        4.7234839647
 O         2.7772847938        2.7537260810        7.2731151614
 C         3.0626539554       -0.2865618460        7.1228327025
 C         2.8207585667       -0.6021580001        5.7166033516
 C         4.0285998286       -0.7894818755        4.6216515774
 C         3.3087266101       -1.2637271805        3.3438380598
 C         3.1799464597       -2.7119113648        3.1024912219
 O         1.7202703606       -0.6029631813        5.1935896056
 O         2.9618756718       -0.3844062390        2.6033694220
 C         4.6928247533        0.5329054077        4.3305033368
 C         5.2363636564       -1.7517214759        5.0212777921
 C         2.0211764963       -3.0934180671        2.2576547521
 C         0.6204311928       -3.0183842456        3.1050592704
 C        -0.3191228905       -4.0442463911        3.6076252590
 C        -1.4959831492       -4.2014749696        2.3400616184
 C        -1.7005674354       -5.6011093043        1.9040554508
 C         0.2506434443       -5.4242774339        4.1491567639
 C        -1.1791249389       -3.4542466898        4.7313112695
 O         0.2922658889       -1.8706494003        3.4019314261
 O        -2.0515125170       -3.1754776336        2.0886695512
 C        -2.2272913672       -5.7450400911        0.4437744181
 C        -1.0096012784       -5.6441841026       -0.4100632670
 C        -1.1742450709       -5.8344690309       -2.0698768736
 C        -1.4379614708       -4.3399169697       -2.4936619319
 C        -0.4552678379       -3.5290412363       -3.5258493591
 O        -0.0068768074       -5.2567474477        0.0761008853
 O        -2.3965936953       -3.7643538459       -2.0546702651
 C         0.1636544698       -6.4691664603       -2.5496141552
 C        -2.3406789183       -6.7205707052       -2.5708519122
 C        -1.3023701036       -2.5712469851       -4.4287941570
 C        -1.4454601955       -1.1070160114       -3.7780304771
 C        -2.5475859511        0.0604364183       -4.3442682760
 C        -3.4737141152       -0.5003127154       -5.4039731415
 C        -3.3006782481       -0.2015195268       -6.9042889874
 C        -3.2860847157        0.2365707643       -2.9431218095
 C        -1.7246702581        1.3281201469       -4.6851792363
 O        -0.9348755594       -0.9163133300       -2.7624265108
 O        -4.3923303232       -1.2683159760       -5.0944779002
 C        -4.0872483704       -1.1079816788       -7.7395808249
 C        -3.2219523893       -1.8182068703       -8.7199875712
 C        -2.5273216277       -0.9260045500       -9.8994685217
 C        -1.3761243738       -0.1122656044       -9.3139269317
 C        -0.0007060587       -0.7031777860       -8.8796697346
 O        -2.8578356388       -2.9981329090       -8.6449575001
 O        -1.5022114928        1.0747849086       -9.1519302975
 C        -1.9394111631       -1.7991653281      -11.0532839962
 C        -3.6608448558       -0.0133778388      -10.5990982726
 H         3.3450376571        6.2271233374       -4.7312706936
 H         4.7391165929        5.6059348944       -4.1833699504
 H         3.5131425628        4.3237529970       -4.4138539844
 H         0.6579824501        5.8588920920        0.4391281674
 H        -0.5454154906        5.9132939042       -0.7016165299
 H         2.7201973779        7.6200474744       -1.3234492754
 H         0.9330379473        7.9306422617       -1.2794941649
 H         1.9228630288        8.2234713851       -2.6424744651
 H         0.9098809541        6.9533612412       -4.1931338264
 H         1.0905710537        5.1444431779       -4.3817405275
 H        -0.2861079281        5.9079509535       -3.4170808519
 H        -0.9685212180        3.4492942620       -0.0441298343
 H         0.4861939928        3.3791115632        0.8006219647
 H        -3.2068905976        1.3856416579        4.4405528246
 H        -1.6996336530        0.6515204143        3.9137318681
 H        -3.8366655819        3.3501208249        3.6423666817
 H        -4.0578314877        4.8550729339        2.5249800221
 H        -2.7735215809        4.8271346045        3.7613401559
 H        -2.6550852693        3.9515352467        0.0752845900
 H        -3.5608264157        2.4528704940        0.3136133639
 H        -4.2431670841        3.9007792470        0.7392321924
 H        -2.1314824733        2.6597312783        5.7707105484
 H        -1.3861354545        3.4805399323        4.6032983792
 H         2.3410147093        0.8658810357        8.9811005528
 H         1.0283259326        0.0389347763        8.0561214476
 H         0.2755336756        4.2722534812        7.9376088062
 H        -0.5328581950        4.5321062563        6.4604933657
 H         1.3439981987        4.4438823887        6.5886971326
 H        -0.3039999279        2.6529223072        8.9855598677
 H        -1.6950278788        2.5971445381        7.8881827771
 H        -0.8591489681        1.0667114047        8.3092345646
 H         4.0781791339        0.1605292214        7.1336022491
 H         3.1465410602       -1.3445988874        7.5529118532
 H         4.2187295252       -3.1923355978        2.8756123322
 H         3.0701569137       -3.1590518553        4.0852413061
 H         3.8992901715        0.8987163909        3.5431144945
 H         5.6592675948        0.5929706411        3.9640970126
 H         4.6303212782        1.2207998688        5.2038856823
 H         5.0222724658       -2.6794871819        5.5871586964
 H         5.8631075788       -1.8058446744        4.1260168838
 H         5.8482367040       -1.2100430504        5.6603977421
 H         2.1107820238       -4.0311032448        1.7985146391
 H         1.7343717810       -2.4518984388        1.4078121012
 H        -0.7577017493       -6.1972760844        2.0117569905
 H        -2.3302532597       -6.3136308862        2.4525015626
 H        -0.0667693339       -6.2101317087        3.4847705100
 H        -0.1150997415       -5.5475977601        5.2093552178
 H         1.3292611637       -5.4672083757        4.2615104451
 H        -1.8079529226       -4.2024085593        5.2778875142
 H        -0.7328575085       -3.1759691020        5.6239406585
 H        -1.9619241837       -2.7888182728        4.3681491900
 H        -2.6176883762       -6.6625484534        0.1127493565
 H        -2.9706879116       -4.9700150516        0.3014186994
 H         0.2924193891       -2.9183884327       -2.9608028943
 H         0.0345358055       -4.2291575041       -4.1204409841
 H         0.9143192748       -6.0936581486       -1.8800298248
 H         0.6833383723       -6.5180801343       -3.5162815480
 H         0.1206948092       -7.5209213259       -2.4126216620
 H        -3.2595347520       -6.1734860240       -2.2533273616
 H        -2.5999949166       -6.6699208808       -3.6048839383
 H        -2.5267307581       -7.6075255984       -1.9457972734
 H        -2.4150069919       -2.7475353553       -4.7116045544
 H        -0.9673815385       -2.4351959332       -5.4835658029
 H        -3.3829275050        0.8379900042       -7.1619293991
 H        -2.2402356911       -0.4329101097       -7.1443778020
 H        -4.2262733703        0.6845234638       -3.0559028950
 H        -2.6704939026        0.7530420218       -2.2249796543
 H        -3.3739155999       -0.8169477113       -2.6111474616
 H        -1.2861386417        1.3303537462       -5.6962938309
 H        -2.4978873127        2.2068570691       -4.7115153358
 H        -0.9935660999        1.6343661295       -3.9056282712
 H        -4.8343918703       -1.8910995913       -7.2184040650
 H        -4.7843957343       -0.5110672875       -8.2265579253
 H         0.4548487335        0.1936388309       -8.6460359483
 H        -0.0499934624       -1.3158181114       -8.0072741985
 H         0.5990332458       -1.3278666555       -9.6353396203
 H        -2.8150471353       -1.8717800148      -11.7166864310
 H        -1.7449577594       -2.7973505720      -10.6237637062
 H        -1.1717228174       -1.3549865983      -11.6739007486
 H        -3.0977955464        0.5196157686      -11.3122040087
 H        -4.2436170006       -0.7994341540      -11.0934505183
 H        -4.0038993975        0.7272954933       -9.8829015630
 Na        0.4196371315        0.1782684077        2.6471404155
