155

 C         3.4762015922        6.2184975009       -4.5874745589
 C         3.1861638787        5.6869889695       -3.1978724331
 C         1.6794315104        6.0023269951       -2.7329366308
 C         1.2261602856        4.9183972198       -1.7292346649
 C         0.5275173343        5.3451285643       -0.3636833823
 C         1.9068761541        7.3000243516       -1.9250698968
 C         0.5967224830        6.2668626358       -3.8805891770
 O         3.9099175021        5.0868817467       -2.4802738282
 O         1.2061018938        3.7842448261       -2.1579374823
 C        -0.1196645045        4.1448308714        0.3653521634
 C        -1.1501843073        4.6828347285        1.5158256138
 C        -2.1445635567        3.7034723078        2.1355328084
 C        -1.5310362607        2.4190759843        2.6559036122
 C        -1.9348880521        1.8774711629        4.0602861923
 O        -0.8812662123        5.8333975323        1.8367855444
 O        -0.7400526107        1.7935718396        1.9507720732
 C        -2.9768041694        4.6593531089        3.1551132848
 C        -3.0881291124        3.1705443264        0.9851648506
 C        -1.4020631145        2.4445812632        5.3272591377
 C         0.1175335157        2.1138692254        5.7816831100
 C         0.6747074549        2.7969074548        7.0432585691
 C         2.0378962752        2.0274951504        7.5787135704
 C         2.1435749425        0.5137568539        7.7769051285
 C         1.0825064544        4.2472762520        6.7610795202
 C        -0.3634548630        2.7491650633        8.1657834365
 O         0.7739200390        1.4424773926        5.0359943121
 O         3.0719911098        2.7056109112        7.6469202477
 C         3.1644981927       -0.0327590094        6.6580270070
 C         2.6412029786       -0.7768085403        5.4955012360
 C         3.9724564598       -1.1678338728        4.5913475906
 C         3.2595717294       -1.6197648294        3.3125310454
 C         3.0547142566       -3.0710851724        2.9673634080
 O         1.4905821665       -1.1423204581        5.4012876455
 O         2.8536676357       -0.7863709803        2.5064618747
 C         4.5778024268        0.2537456170        4.0890385396
 C         4.9015627392       -2.0954965362        5.2788111299
 C         1.7060499945       -3.3103379625        2.3590554950
 C         0.4766713965       -3.0775945922        3.2680164623
 C        -0.3575699320       -4.2323541215        3.8477485264
 C        -1.4797508196       -4.5838831862        2.6395198364
 C        -1.3426300131       -5.9590216531        1.9052609440
 C         0.3943104305       -5.5039683980        4.3327029702
 C        -1.3098763164       -3.7359038246        4.9325017780
 O        -0.0748182532       -1.9868422159        3.2098886988
 O        -2.2384215720       -3.7285126880        2.4710241084
 C        -1.9753281727       -5.9314878469        0.4268585261
 C        -0.7756348359       -5.6491393652       -0.5542970098
 C        -1.1688692553       -5.5192286338       -2.1350452240
 C        -1.4897818629       -4.0404232391       -2.3848934476
 C        -1.1480972773       -3.6542979342       -3.8963832706
 O         0.3107527888       -5.7604675428       -0.2161520888
 O        -2.1710942166       -3.3477492864       -1.7632579493
 C        -0.0687151930       -6.1033482073       -2.9908737975
 C        -2.4778328084       -6.4190923690       -2.2078588940
 C        -1.9825523471       -2.5456961920       -4.3739485684
 C        -1.5251940571       -1.0695734783       -4.0894343497
 C        -2.6446015421        0.0046006016       -4.0995093608
 C        -3.7674622322       -0.4888363050       -4.9688738920
 C        -4.0008755715        0.0002384039       -6.3931699231
 C        -3.2724410829        0.2454320961       -2.6418094496
 C        -1.9608207048        1.3168724949       -4.5400273530
 O        -0.3646712406       -0.7523110585       -4.0275845576
 O        -4.6222986192       -1.2823663349       -4.5252101176
 C        -4.4954265048       -1.0419932756       -7.3223926271
 C        -3.5263179395       -1.5741354978       -8.4329410726
 C        -2.8242498437       -0.7702599914       -9.7271354251
 C        -1.4400408301       -0.1984945644       -9.1937620301
 C        -0.1678670982       -0.6760564867       -9.8803161773
 O        -3.0201008121       -2.6827701424       -8.2440539572
 O        -1.2740024906        0.7172733806       -8.4798614397
 C        -2.6102962600       -1.8583726417      -10.8629115550
 C        -3.8896494505        0.3188343603      -10.2633785802
 H         3.4153190984        7.2576317239       -4.4417048539
 H         4.4179608410        5.9222561486       -5.1267497385
 H         2.7035841851        5.8263882769       -5.3417358489
 H         1.2868835596        5.8651230239        0.2510932885
 H        -0.2173763546        6.0350750468       -0.5887055576
 H         2.8188746359        7.2420926854       -1.3274696752
 H         1.0816210833        7.6221451194       -1.2199993772
 H         2.2877751704        8.1118647517       -2.6218491077
 H         0.8924611784        7.1185980531       -4.4469455643
 H         0.5843412590        5.2607643433       -4.3430971601
 H        -0.3784766561        6.5009517930       -3.5051741585
 H        -0.4626746875        3.5925019329       -0.4482687054
 H         0.5664067233        3.4070158889        0.9298692502
 H        -3.0478069072        1.8957418734        4.0806536720
 H        -1.6101575944        0.7962608252        4.0986001413
 H        -3.9041968714        4.0768705608        3.1262357283
 H        -3.0872277962        5.5695488462        2.6768121874
 H        -2.5475439264        4.7727115363        4.1125236964
 H        -3.1858002893        3.9111780414        0.2482375301
 H        -2.5678809242        2.3867585074        0.4452062923
 H        -4.0084239275        2.6191437096        1.1818815585
 H        -2.1216206530        2.2531766788        6.0137398561
 H        -1.2731007848        3.5375527700        5.2825656716
 H         2.9353779273        0.2532834502        8.5368277389
 H         1.1689289868        0.0976377122        7.8742937351
 H         2.0358348293        4.4133645111        7.2646853156
 H         0.3185632671        4.9218570187        7.1164628711
 H         1.2739516686        4.3479073650        5.7023657269
 H        -0.0551339728        2.6042269440        9.1976273774
 H        -1.0233290634        3.6703282337        8.1083482372
 H        -1.0190267117        1.8651169055        7.9376655440
 H         3.7076716717        0.7569666002        6.1736908253
 H         3.8778531575       -0.6765645838        7.1306809992
 H         3.7780189700       -3.4494865868        2.1910881836
 H         3.2321912150       -3.7011419475        3.9065350787
 H         3.8567020225        1.0922513208        3.9535654219
 H         4.9458619478        0.1332514629        3.1135452220
 H         5.4467400861        0.4972252594        4.6886835522
 H         4.2666077323       -2.7784322565        5.9189328722
 H         5.4603658517       -2.6784082055        4.5523640086
 H         5.7472605640       -1.5164867214        5.7288940801
 H         1.5828901978       -4.3145525322        1.9541175610
 H         1.6145581963       -2.6186234105        1.5286423459
 H        -0.3550623334       -6.5097174863        1.7650123909
 H        -2.0099325704       -6.6307450550        2.5487663354
 H         1.1956883067       -5.7855292007        3.6694179183
 H        -0.2631870254       -6.3724899918        4.3699511857
 H         0.6971271685       -5.3400165929        5.3254940038
 H        -1.9381094164       -4.5208841490        5.4146926866
 H        -0.7903422260       -3.3361116633        5.7652613246
 H        -2.0899278657       -2.9607045143        4.7093604445
 H        -2.5152254181       -6.8090342457        0.2102234793
 H        -2.5461840181       -5.0248513226        0.2029150642
 H        -0.0323803160       -3.5571584506       -3.9058532468
 H        -1.2549447155       -4.5089764592       -4.4916660133
 H         0.8614158680       -5.4725034987       -3.1898774550
 H        -0.4090867716       -6.4799733117       -3.9741879322
 H         0.3477736787       -7.0289801996       -2.5943882407
 H        -3.3925787891       -6.0470542590       -1.8456297513
 H        -2.7202348134       -6.4992780219       -3.2596985528
 H        -2.4269664385       -7.4921009665       -1.9163965272
 H        -3.0584228784       -2.5574777954       -4.1096321427
 H        -2.2306033410       -2.5893865620       -5.4849672576
 H        -4.5839636461        0.8863595366       -6.3546290865
 H        -2.9843175780        0.2613719010       -6.7005176063
 H        -3.7521482018        1.2027387861       -2.6068547193
 H        -2.4048914118        0.2162918612       -2.0369549042
 H        -3.9194720412       -0.5543781556       -2.3267882747
 H        -0.9913098088        1.1881490762       -5.0189403846
 H        -2.7089971413        2.0479830647       -4.9769600706
 H        -1.6126497550        1.7532365620       -3.6232262465
 H        -4.8630057862       -1.9753789281       -6.7133164746
 H        -5.4450545014       -0.8158945340       -7.6984840490
 H         0.7192190771       -0.2414866160       -9.4000342852
 H        -0.0364794616       -1.6883321952       -9.9841407289
 H        -0.2053412685       -0.2635156455      -10.8641261850
 H        -3.6059226457       -2.2187968345      -11.0794345636
 H        -2.0640811449       -2.7923269029      -10.4185112113
 H        -2.1613940473       -1.4042576659      -11.7112096642
 H        -3.4487780965        0.6685505917      -11.1723723416
 H        -4.8831714162       -0.2348247664      -10.3922910469
 H        -3.7814763705        1.0985127196       -9.4586452139
 Na        0.8575376269        0.4704306581        2.9836766600
