155

 C         3.5752997848        5.3007434870       -4.9678334134
 C         2.2187651830        4.9542337815       -4.3307592183
 C         1.5430050895        6.1432828484       -3.5960420530
 C         0.4914866992        5.6522492599       -2.6117937643
 C         1.1304185042        4.6868043559       -1.5056639768
 C         2.5291395208        7.1190916310       -2.8387751922
 C         0.9269836361        6.9333021846       -4.8252754195
 O         1.6485306372        3.9201220912       -4.4913875224
 O        -0.7255216958        5.6641907948       -2.7358851216
 C        -0.1016577383        4.0250777021       -0.8789427933
 C         0.1807159627        3.5331078545        0.5446601883
 C        -0.9259528889        3.6362350724        1.5713039922
 C        -0.3094079972        2.9689989980        2.8961183541
 C        -0.1178563595        3.8151193463        4.1807215203
 O         1.3657020246        3.3245979535        0.9142492766
 O        -0.2533825800        1.8074174035        2.8367187862
 C        -1.4099525650        5.0249906661        1.7877507788
 C        -2.0666442125        2.7974989199        1.0771371354
 C         1.2901985102        4.1143848553        4.7077768193
 C         2.0134289399        2.9164866186        5.1720451344
 C         2.6870134354        2.8134536702        6.6013526834
 C         3.7170651625        1.6338580803        6.6540153958
 C         3.6502312452        0.6440853556        7.8080789880
 C         3.6539805395        4.1608137760        6.8289836744
 C         1.5353891445        2.7419163908        7.6196818358
 O         2.0851693595        1.9338543769        4.4594188443
 O         4.6712215331        1.5545071140        5.8830561799
 C         4.2303707141       -0.6508937651        7.3180526262
 C         3.4214699308       -1.0654927265        5.9792754538
 C         4.2274039950       -1.7228940439        4.7571936703
 C         3.1258326542       -2.2005711461        3.6878861732
 C         2.5338267603       -3.6758670177        3.9040473936
 O         2.2122420333       -0.8247877032        5.8237357872
 O         2.6114199008       -1.5758619408        2.8273915279
 C         5.1621773776       -0.8875705015        3.9582277772
 C         4.9919212793       -2.9836553622        5.2881364709
 C         1.3478171619       -3.9087111947        2.8743275149
 C         0.0537215685       -3.4150653478        3.5696747509
 C        -1.1367087630       -4.5463854860        3.6207736315
 C        -1.9468460134       -4.3960876302        2.2350178323
 C        -1.4679814463       -5.2212150206        1.0393821245
 C        -0.6288462194       -6.0715699807        3.7473702041
 C        -2.2972292778       -4.0593257599        4.6491266981
 O        -0.1528025544       -2.2535885604        3.7635891102
 O        -2.8787327694       -3.7074448016        2.1703805062
 C        -0.3305507053       -4.5723069675        0.1870109742
 C        -0.1278626542       -5.3080405723       -1.1158580923
 C        -1.1095426584       -5.2304787907       -2.2413495023
 C        -1.8966061180       -3.9030685988       -2.4045960398
 C        -2.8552099587       -3.8185382996       -3.5842216708
 O         0.8534728275       -6.0936335779       -1.1873161511
 O        -1.7952677672       -2.9502235435       -1.7087329939
 C        -0.1382123571       -4.9547589149       -3.7067029844
 C        -1.7032045456       -6.6263808427       -2.5553422704
 C        -3.3924820769       -2.3256903343       -3.6820796543
 C        -2.1777886632       -1.4478425456       -3.6917812335
 C        -2.5005211151        0.0824349823       -3.0628939940
 C        -3.6353135497        0.7414125995       -3.9821579235
 C        -3.7437839269        0.5386937741       -5.4641424738
 C        -3.1404606022       -0.0921425321       -1.5581170765
 C        -1.1521151219        1.0594198365       -3.0113817799
 O        -1.1989972393       -1.7125224637       -4.3228757078
 O        -4.5630925677        1.3158313152       -3.4778428691
 C        -5.2855773727        0.3265411332       -5.8280696353
 C        -5.6718894337       -0.7142286294       -6.8584618725
 C        -5.3509405263       -0.3813407936       -8.4669516210
 C        -3.9241079969       -0.9394077770       -8.6742905322
 C        -3.3525436332       -0.8959207518      -10.0401608163
 O        -6.1437255450       -1.7363771404       -6.4914627658
 O        -3.4483354949       -1.5171957729       -7.7156088626
 C        -6.3865263333       -1.0384099283       -9.3889453902
 C        -5.3151178100        1.2003402698       -8.6077799999
 H         4.3306675456        5.7237370959       -4.3035773373
 H         3.8528575626        4.5923797801       -5.6821686508
 H         3.3802455211        6.0207779145       -5.6875385686
 H         1.7877256592        4.0007332205       -2.1164817977
 H         1.7570922221        4.8711730480       -0.7152680844
 H         2.8677774799        6.5333154354       -1.9721257692
 H         2.1384446144        7.9593583202       -2.3541633770
 H         3.1516040081        7.5278321171       -3.5340974279
 H        -0.1031253188        7.1557885211       -4.7015261439
 H         1.3150652705        7.9678314726       -4.6906604850
 H         1.1519483309        6.5577552821       -5.8079825034
 H        -0.9310453026        4.7385390999       -0.9820854222
 H        -0.6236739213        3.2091588203       -1.3872159862
 H        -0.5217298117        4.8079815469        4.0077683204
 H        -0.8080921088        3.3054976743        4.7896943114
 H        -2.3244446854        5.0762237859        2.3990688439
 H        -1.9089012252        5.5488161803        0.9204207749
 H        -0.5959667092        5.7344659081        2.1475461385
 H        -2.5491726011        3.1944389522        0.1963337753
 H        -1.8862903704        1.8296674479        0.6020829742
 H        -2.9176498716        2.6405395988        1.6928728677
 H         1.0963799380        4.8890594455        5.5294083282
 H         1.6510475553        4.6713022901        3.8817165650
 H         4.0532284464        1.1593748015        8.6868208491
 H         2.7062987449        0.3267643717        8.1388521788
 H         4.2342895333        4.1200384031        7.7905457941
 H         3.0405626702        5.0176894558        6.8680835986
 H         4.3233130198        4.4796852898        6.0663764077
 H         1.8734971582        2.7837675275        8.6531210131
 H         0.8213274206        3.6214883281        7.4774735682
 H         1.0690331265        1.7725170175        7.3669116464
 H         5.3033181376       -0.4158454011        7.0658452027
 H         4.1139239537       -1.4337574972        8.1214082493
 H         3.2064615143       -4.4098734663        3.9023613353
 H         2.0367383637       -3.6491704750        4.9343147552
 H         5.0265420372        0.1648042313        4.0186274120
 H         5.2499721395       -1.1815394837        2.8534865414
 H         6.1286507764       -0.9752566118        4.4675105711
 H         4.3525163123       -3.5910621715        5.8291121196
 H         5.3290919133       -3.5350145371        4.4063836910
 H         5.6979777664       -2.6611507226        6.0103503365
 H         1.3542391358       -5.0058457537        2.7453081775
 H         1.4425666031       -3.3263901720        1.9766740813
 H        -1.2023394843       -6.3121171775        1.3042357582
 H        -2.3273879019       -5.2732619071        0.3840862853
 H        -0.1101662804       -6.4250934293        2.8529315131
 H        -1.5266768804       -6.6246725491        4.0535287616
 H         0.2131674320       -6.1522051770        4.5261786809
 H        -3.1875913611       -4.4801279117        4.2136483005
 H        -2.0029833348       -4.3878689809        5.6814953467
 H        -2.2798998626       -3.0055708873        4.6997438413
 H        -0.5039568920       -3.4866540451        0.0813398269
 H         0.6475773960       -4.6135365400        0.7201442113
 H        -2.3456764856       -3.7999956207       -4.6182688558
 H        -3.6305438588       -4.5847551036       -3.6039784218
 H        -0.0709006043       -3.8754272695       -3.6265688228
 H        -0.6254735769       -5.1930764347       -4.6028528261
 H         0.8415231817       -5.3737823894       -3.5610643979
 H        -2.7152123346       -6.8062543167       -2.0188024807
 H        -2.0193500642       -6.6788124920       -3.6600805479
 H        -0.9513540209       -7.3838156361       -2.3324063857
 H        -4.1220155342       -2.1822568752       -2.9048513961
 H        -3.9420986284       -2.2873912914       -4.7481751064
 H        -3.4685072830        1.5109780499       -6.0051679422
 H        -3.2116797566       -0.3095197728       -6.0341249260
 H        -4.2500698393       -0.1578212236       -1.6087149685
 H        -2.8097975725        0.8274886289       -1.0036343263
 H        -2.8159973719       -0.9688416278       -1.0859487717
 H        -1.2564652568        2.1541068589       -3.3347830946
 H        -0.6879099292        1.1174975502       -2.0278462938
 H        -0.4912739336        0.5948174286       -3.7682844963
 H        -5.7665083675       -0.0355915938       -5.0328409488
 H        -5.7618270772        1.3453345085       -6.0672847336
 H        -2.9711642657        0.0357885857      -10.2573993316
 H        -2.4584909984       -1.5927557140      -10.0286920950
 H        -4.1115834717       -1.0455894341      -10.8710505570
 H        -7.3780345505       -0.4807075131       -9.2450824237
 H        -6.5061415772       -2.0284223361       -9.1258874092
 H        -6.1229561490       -1.0600297700      -10.4939131274
 H        -5.1055579145        1.5288492224       -9.6200181254
 H        -6.2221695155        1.7608478189       -8.3549232522
 H        -4.6219549897        1.6718995234       -7.9909797095
 Na        0.9606686957       -0.1083232793        3.6221532879
