155

 C         3.6780748273        5.1415863543       -5.2639001132
 C         2.3742153465        4.9591236560       -4.4517555950
 C         1.5620970001        6.0970779035       -3.8083967122
 C         0.5474688008        5.6716373635       -2.7171215873
 C         0.9768464432        4.7160522122       -1.6484543117
 C         2.5417516447        7.0263177993       -3.1391526239
 C         0.6654286636        6.9597716401       -4.8378341841
 O         1.8558108399        3.8288737837       -4.5048215131
 O        -0.5386542233        6.2197340174       -2.7035654907
 C        -0.1715840881        4.2418916164       -0.6904001110
 C         0.1420542278        3.4437907557        0.4962261185
 C        -1.0396089914        3.5354220837        1.7414650128
 C        -0.3570624553        2.9365016662        2.9544065363
 C         0.0092265124        3.5547242911        4.3097057836
 O         1.1117055548        2.7627904133        0.5891209193
 O        -0.1000296615        1.6881700034        2.7686922836
 C        -1.3550538256        4.9787717278        1.8901069576
 C        -2.2042170503        2.6244368131        1.2034389282
 C         1.5209263689        3.9420512233        4.3190290060
 C         2.2663760794        2.9099562064        5.1837489793
 C         2.9620967664        3.1395972241        6.6432799901
 C         3.8539602202        1.7629222322        6.6897547301
 C         3.6675385025        0.5564408817        7.6166362097
 C         3.7838746556        4.3574743022        6.8946402625
 C         1.6815218209        3.1772977132        7.6300672788
 O         2.0655059412        1.7397573432        4.8784989311
 O         4.7363169561        1.7737754226        5.8999505423
 C         4.3401597480       -0.7846000939        7.0996672939
 C         3.5970134547       -1.0171817674        5.8230460181
 C         4.4128159300       -1.9570497078        4.7879750018
 C         3.2035506363       -2.4688350215        3.8153375927
 C         2.4677877093       -3.7469641584        4.1808170346
 O         2.4934554179       -0.6220135862        5.5190222824
 O         2.7462628909       -1.6448390246        2.9759804694
 C         5.3173121310       -0.9749442196        3.9713149148
 C         5.1415370759       -3.1967250568        5.3346670940
 C         1.4328010593       -4.2095824142        3.1695981675
 C         0.0182407527       -3.6300920062        3.5428596974
 C        -1.2483848881       -4.6285828435        3.6053137400
 C        -1.8791087063       -4.3136135519        2.0729631940
 C        -1.6324963737       -5.0961713338        0.7218971795
 C        -0.9173526679       -6.0888733550        3.9128357669
 C        -2.1681704230       -4.1102871987        4.7026027768
 O        -0.0826741443       -2.3836634162        3.7282328254
 O        -2.6561893114       -3.2970219939        1.9863867921
 C        -0.1956882532       -4.6186042993        0.1324004025
 C         0.0110837441       -5.4022211090       -1.1743398171
 C        -0.8358738536       -5.0824261592       -2.4993406677
 C        -1.8926208954       -3.9354826879       -2.4200506131
 C        -2.9344187858       -3.7821609740       -3.5254756929
 O         0.7688353390       -6.2946057687       -1.1655024497
 O        -1.9880888771       -3.1554447599       -1.4571811715
 C         0.0613147081       -5.0569561476       -3.6357658318
 C        -1.8986967306       -6.3713316174       -2.4065997156
 C        -3.6176207205       -2.3648711891       -3.7026632522
 C        -2.3670067203       -1.2882601517       -3.8349851420
 C        -2.5860061333        0.1383109151       -3.2400702355
 C        -3.7354450824        0.7933946088       -4.0116621360
 C        -4.0150187430        0.4602608862       -5.4683922152
 C        -3.0437187839       -0.0319643653       -1.7295493051
 C        -1.2977686101        0.8424394687       -3.2981525633
 O        -1.2006919963       -1.5513360735       -4.2275953883
 O        -4.2776621015        1.7094305370       -3.3441778200
 C        -5.5310854273        0.5950986662       -5.6948178632
 C        -5.9521355504       -0.4858880095       -6.7244254154
 C        -5.4759857105       -0.2576960668       -8.2785567861
 C        -4.1265260142       -0.9745529051       -8.5057544797
 C        -3.7108427043       -1.0288065479       -9.9782855659
 O        -6.7104340342       -1.4190948905       -6.4431048642
 O        -3.4713472921       -1.5986354946       -7.6829668267
 C        -6.6147822336       -0.9480656555       -9.0582535919
 C        -5.3700554127        1.2273615742       -8.7755217277
 H         4.4555486944        5.4069732647       -4.5905958083
 H         3.8655239693        4.2168423785       -5.8750351782
 H         3.7101926784        5.8835226795       -6.1487137486
 H         1.5989074075        3.9257724913       -2.1103685699
 H         1.8092843631        5.2508050213       -1.0281079775
 H         3.0585629354        6.4952076533       -2.3308271549
 H         2.0205383137        7.8634204072       -2.6408836101
 H         3.0353932730        7.6492017156       -3.9236780477
 H        -0.3865715836        7.1205956649       -4.5057747943
 H         0.9905486288        7.9727863489       -5.0335940218
 H         0.7209397242        6.4276092704       -5.8260265563
 H        -0.8394759309        5.1006086831       -0.4554215847
 H        -0.8102646832        3.6530526462       -1.3507352607
 H        -0.7179374136        4.3739769989        4.4872548903
 H        -0.1311182258        2.7319306089        5.1114264675
 H        -1.7962138055        5.2396259267        2.8197776260
 H        -2.1902321828        5.2566959071        1.3380160427
 H        -0.6097903081        5.6670008788        1.6391755506
 H        -2.6687041971        2.7887942665        0.2511881203
 H        -2.0339631498        1.5881655352        0.9981231760
 H        -3.0983210411        2.6551403453        1.8869217240
 H         1.5423478158        4.9705789634        4.6807956400
 H         2.0153240313        3.8785844199        3.3096756080
 H         4.0533665814        0.7854733331        8.6523255656
 H         2.5725411616        0.2523762536        7.8124838043
 H         4.4101150261        4.2379447667        7.7706297999
 H         3.2628878256        5.3495610300        6.9508856264
 H         4.4652231505        4.5927388371        6.0441483843
 H         2.0965736808        3.3266559052        8.6422113789
 H         1.1394301271        4.0721480804        7.4163180497
 H         1.0720733315        2.2652769429        7.5684541703
 H         5.3599924981       -0.5676215096        7.0317765030
 H         4.1114606621       -1.5379028521        7.7993994467
 H         3.2810964960       -4.5897120984        4.2834221712
 H         2.0212494486       -3.4933500866        5.1380967189
 H         5.2452600504        0.1207967955        4.1628568019
 H         5.2019125522       -1.2657084362        2.9871939433
 H         6.4040232588       -1.0554002289        4.1754425693
 H         4.6007311724       -3.8719518833        6.0668148236
 H         5.3234266663       -3.6959968371        4.3992580638
 H         6.0751690237       -2.8318082813        5.8789043792
 H         1.5298527492       -5.2584632299        3.2241500704
 H         1.7075441137       -3.7451859295        2.2032571251
 H        -1.4933557192       -6.1338426099        0.8478446249
 H        -2.5399058796       -4.8698574681        0.0929021897
 H         0.0303073092       -6.2625982840        3.3458863284
 H        -1.7051494219       -6.7783641043        3.6365067850
 H        -0.6892532543       -6.1905920009        4.9512188137
 H        -3.1096650520       -4.5995344673        4.6472674986
 H        -1.6205889189       -4.3214941093        5.5200429301
 H        -2.1340468875       -3.0016708430        4.6651547610
 H        -0.2539509848       -3.5275274065        0.1205197347
 H         0.6419251104       -4.7660730993        0.7637968956
 H        -2.6037468433       -4.0440092446       -4.4933724486
 H        -3.7931593135       -4.5087291147       -3.3229421045
 H         0.3961396670       -3.9920279900       -3.8407278488
 H        -0.5879789238       -5.4136483635       -4.4751926502
 H         0.9031598442       -5.7020164233       -3.4103700347
 H        -2.3685428083       -6.4221343149       -1.4593292779
 H        -2.6736395738       -6.2115246610       -3.0635099175
 H        -1.3500157261       -7.3148257776       -2.6704167221
 H        -4.2143185682       -2.3453382747       -2.7634285851
 H        -4.3327399298       -2.3363860332       -4.4181245098
 H        -3.4893373080        0.9525958753       -6.2446935222
 H        -3.9098839111       -0.5654708815       -5.6343048722
 H        -3.6685161162       -0.8877589087       -1.5482592901
 H        -3.5992149950        0.8578266886       -1.3578094104
 H        -2.0945557398       -0.2567016467       -1.1243410305
 H        -1.1002646519        1.3870192795       -2.3797624735
 H        -0.4026435101        0.1649662517       -3.3929591429
 H        -1.3129048466        1.5895570800       -4.0590500550
 H        -6.1239654313        0.4725454670       -4.6788846761
 H        -5.7577308219        1.5128748932       -6.1378426391
 H        -3.8669898924       -0.1848643195      -10.7034271012
 H        -2.6957274619       -1.3434202161       -9.9964832465
 H        -4.3617234793       -1.7349923859      -10.3567455591
 H        -7.5697928643       -0.8195197224       -8.6432813088
 H        -6.3421821203       -2.0202763114       -9.3549600774
 H        -6.7168818764       -0.4803042239      -10.0073727350
 H        -5.7603658575        1.3770337671       -9.7822429762
 H        -5.9081707272        2.0087895823       -8.2033011969
 H        -4.3750433842        1.7662837589       -8.7028280300
 Na        1.0202252750       -0.0778823093        3.8487781951
