155

 C         3.4509460188        4.8743337889       -5.6849591031
 C         2.3580763008        4.7615319897       -4.6173438892
 C         1.6978629467        6.1313294843       -3.9442200529
 C         0.6605304128        5.9045399090       -2.8543443300
 C         0.6559772467        4.5688017599       -1.9127876011
 C         2.6765680568        7.2586106827       -3.4033818184
 C         0.7080364179        6.6341850551       -5.0982881546
 O         1.9593840353        3.6249536844       -4.4291913505
 O        -0.1795671089        6.7665944781       -2.5583772679
 C        -0.3171360167        4.6705476445       -0.6339600796
 C        -0.1836815826        3.3356167420        0.1728897003
 C        -0.9286787440        3.3259546068        1.5946937285
 C        -0.1360811213        2.6015862662        2.8343689557
 C         0.0996758392        3.3517167093        4.2912868821
 O         0.4734131313        2.3628980075       -0.1868834761
 O         0.0895693776        1.3480984093        2.7920020477
 C        -1.2693981000        4.7904034934        2.0314992763
 C        -2.2902141379        2.4684075179        1.3935396878
 C         1.5636758811        3.7083050206        4.3910585055
 C         2.3075920232        2.7088575963        5.3073579323
 C         3.3041427625        3.1480094446        6.4804996302
 C         4.4973408612        2.1429963708        6.7664387042
 C         4.1011881749        0.9217887151        7.4831571860
 C         4.0642012705        4.5236581122        6.0656497793
 C         2.5266462545        3.4523977648        7.8360858415
 O         2.0946513484        1.5153731516        5.1922399358
 O         5.6368167299        2.3249770199        6.4318671724
 C         4.7333425186       -0.4301456592        6.9039079539
 C         3.7517554974       -1.1549200150        6.0218953956
 C         4.4877088612       -2.0926645559        4.9019948336
 C         3.4408289836       -2.7566549342        3.9174071575
 C         2.6672265444       -3.9854632812        4.4862406345
 O         2.5527070190       -1.2359589678        6.1599046287
 O         3.1267515049       -2.2402539173        2.8264522574
 C         5.4204517572       -1.2759752156        3.9569694290
 C         5.4375992378       -3.1162860899        5.7364534921
 C         1.5011914382       -4.4486890010        3.6108998583
 C         0.1659445505       -3.6808635668        3.8539238597
 C        -1.2462263996       -4.3399026539        3.5047285141
 C        -1.7386311902       -3.9243362938        1.9786020161
 C        -1.9997044947       -4.8581795292        0.7123958630
 C        -1.1327378084       -5.8720706824        3.7015197394
 C        -2.3600958236       -3.8981500985        4.5872097132
 O         0.1774667435       -2.5051527654        4.1026580283
 O        -2.1532120554       -2.7971283378        1.9575631614
 C        -0.4483776092       -4.9253325364        0.0980834694
 C        -0.2142158661       -5.6305873666       -1.2361491356
 C        -1.1989385566       -5.4037115118       -2.4940517625
 C        -2.1053374203       -4.1872492884       -2.4885618019
 C        -3.0780132366       -3.6849107189       -3.6451402051
 O         0.8451615793       -6.1780678719       -1.2893997943
 O        -1.9666462645       -3.3350303892       -1.6848378314
 C        -0.1416724096       -5.0395215212       -3.6147768451
 C        -1.8826296428       -6.7777285960       -2.6303994225
 C        -3.4868771216       -2.2639762788       -3.3441400299
 C        -2.3006324712       -1.2630351786       -3.6820700424
 C        -2.5022629180        0.2151142058       -3.3265379383
 C        -3.7394111894        1.0540382827       -3.9677254029
 C        -4.3116246492        0.7784547965       -5.4544376571
 C        -2.7032389054        0.2668242106       -1.6954983840
 C        -1.1754087606        1.0683250969       -3.9245949581
 O        -1.3912921231       -1.6509584058       -4.3457260530
 O        -4.1976623225        1.9981647742       -3.3256323327
 C        -5.8774143822        0.9199628384       -5.5801741155
 C        -6.5253900633       -0.0524492577       -6.5986884573
 C        -6.1109896443       -0.1451692744       -8.1571449770
 C        -4.8137869488       -1.0459949376       -8.2529246509
 C        -4.3366798511       -1.4780418199       -9.6656860769
 O        -7.4967816894       -0.7147819426       -6.3610880102
 O        -4.1095894522       -1.4078731971       -7.3216806524
 C        -7.2491339181       -0.6749423846       -9.0275577721
 C        -5.7738008341        1.2962880869       -8.8190497324
 H         4.4008636286        4.9723667518       -5.2812528208
 H         3.4395534777        3.8596588146       -6.1874605594
 H         3.3477943312        5.7118540545       -6.4626046714
 H         0.2740821111        3.8874864639       -2.7196655452
 H         1.6197134299        4.2302992992       -1.5965760928
 H         3.1900747865        6.9110716087       -2.4103238843
 H         2.0370309510        8.0955770055       -3.2508043890
 H         3.5714955506        7.5681447328       -4.0395416905
 H         0.3857634791        7.6312173287       -4.8177850031
 H         1.1478815196        6.7067481425       -6.0878870366
 H        -0.2422324070        6.0565497211       -5.2138660436
 H         0.0178674438        5.5200696858       -0.0351582379
 H        -1.3510656397        4.7660967857       -0.9233056695
 H        -0.6907690133        4.1174003938        4.5044681959
 H        -0.0217558159        2.4546349369        4.9410571438
 H        -1.6389743348        5.0704336215        3.0681987367
 H        -1.9728353212        5.2038964843        1.3323021193
 H        -0.4709668080        5.5568199921        1.8856201760
 H        -3.1509396885        2.7122677040        0.8478595465
 H        -2.0840413638        1.5047970362        0.9309012489
 H        -2.7552338796        2.0809968303        2.3430539358
 H         1.6197491204        4.7783235240        4.7954618327
 H         1.9109970215        3.5493174212        3.4594880167
 H         4.6159106131        1.0960967078        8.5002025723
 H         3.0450302544        0.5749037278        7.5916764769
 H         3.9360951601        5.3037750890        6.8858710870
 H         3.5384305343        5.0759640935        5.2857458573
 H         5.0961593197        4.5997389034        5.7756851199
 H         3.2507495182        3.7881586511        8.5897564338
 H         1.7699308839        4.2304533173        7.6074174584
 H         2.0421071061        2.4980296399        8.2418275926
 H         5.6747871861       -0.1757677923        6.4967546555
 H         4.7901807205       -1.0593581779        7.7475481361
 H         3.4867800407       -4.6618503697        4.4758806407
 H         2.3492415759       -3.6952541149        5.5270913257
 H         4.8005092340       -0.8084514345        3.2320149533
 H         6.2215467817       -1.8910582143        3.6464509647
 H         5.9296128900       -0.3103767249        4.2767229630
 H         4.6619010254       -3.5940410770        6.3084790273
 H         5.9480827546       -3.8321410078        5.1051857511
 H         6.3096004362       -2.5455323369        6.2809291193
 H         1.3810038729       -5.4841992128        3.6906303146
 H         1.7988490776       -4.1216373425        2.6016505837
 H        -2.3260428812       -5.8839190867        0.9137657031
 H        -2.6941303799       -4.2503811415        0.0821847390
 H        -0.2682350564       -6.3840559035        3.1755533824
 H        -1.9660349111       -6.2983018757        3.1706614070
 H        -1.2627293821       -5.9866906323        4.7752509474
 H        -2.4786635614       -4.7250081668        5.2346843916
 H        -1.9735204727       -3.1531805507        5.1787860723
 H        -3.2550934654       -3.6678768008        4.0268309596
 H        -0.0935973652       -3.8749639651        0.0583852255
 H         0.3208559661       -5.3124152270        0.7172385564
 H        -2.7948734117       -3.6494439077       -4.6774370210
 H        -3.9897449046       -4.3562395081       -3.8435962161
 H         0.3699383882       -4.1801528614       -3.1434889415
 H        -0.6136871316       -4.7670282216       -4.5566398310
 H         0.5552504031       -5.7952720974       -3.5139046744
 H        -2.9087499218       -6.7413411700       -2.2442247540
 H        -1.8041486463       -7.1610641624       -3.6359245396
 H        -1.2335658360       -7.4655323092       -1.9657922831
 H        -3.9935389710       -2.1539945521       -2.3472037778
 H        -4.3181267328       -2.0077934782       -3.9120774710
 H        -3.8418116781        1.4994761264       -6.1499983429
 H        -4.1160320905       -0.2258407442       -5.7317360609
 H        -3.6311160183       -0.1506498889       -1.4473786436
 H        -2.7211381109        1.1978642644       -1.1243603653
 H        -1.8435468596       -0.3572233133       -1.3302069953
 H        -0.4485710957        0.3656689632       -4.4133680558
 H        -1.3726159806        1.8967209423       -4.6958159747
 H        -0.6565876091        1.4822219337       -3.0992586019
 H        -6.2375169356        1.0626884793       -4.5264840205
 H        -6.0281990214        1.9322145065       -5.9976806004
 H        -4.9616511562       -1.6134626392      -10.4692452743
 H        -3.4273732567       -0.8717297922       -9.8297783588
 H        -3.9573521815       -2.4491271257       -9.4588801253
 H        -7.7482825936        0.0631858620       -9.6464160731
 H        -7.9603616223       -1.2337906874       -8.3864325614
 H        -6.9451852973       -1.4403978286       -9.7322583566
 H        -5.4134297156        1.4046581591       -9.7800806818
 H        -6.6257932653        1.9649498210       -8.8319412457
 H        -5.0450169021        1.9276833843       -8.2592839492
 Na        1.2996616829       -0.5442791996        3.7707391124
