155

 C         3.1599900990        4.6049069876       -5.6568542164
 C         2.1229008026        4.5169337864       -4.4838273145
 C         1.6705356574        5.8128940585       -3.8439233876
 C         0.8702922089        5.6694568658       -2.4994801735
 C         0.5731426385        4.4017858641       -1.8393111559
 C         2.6753445476        6.8959052202       -4.0234775923
 C         0.4243801987        6.1226387086       -4.7174757843
 O         1.5104079902        3.4677122973       -4.2294621926
 O         0.5518453854        6.7268725591       -1.9606325291
 C         0.1925907652        4.5197787988       -0.3817390426
 C        -0.1356979122        3.0432499276        0.1430383388
 C        -0.6356280112        2.8257968724        1.6628091059
 C         0.2881302884        1.9454521891        2.6112388232
 C         0.2849953460        2.2547479946        4.1467965390
 O         0.0311206902        2.0660962491       -0.5533568981
 O         1.1045582121        1.2051687485        2.1491047696
 C        -0.9286375106        4.2766812068        2.2552580386
 C        -1.8582080869        1.8178498479        1.6988902114
 C         1.4865004212        3.2282953442        4.5744651656
 C         2.6423003976        2.4367343570        5.1492657351
 C         3.6940512440        3.2188308655        6.0257748552
 C         4.7279147799        2.2016402931        6.6521106496
 C         4.3392435700        0.8975256486        7.5253972832
 C         4.4752636229        4.0380797638        4.9288386128
 C         3.2073962669        4.1989710789        7.0904936862
 O         2.6545046473        1.2227859811        5.0467325887
 O         5.8754720847        2.2426468074        6.3953995891
 C         5.0195927926       -0.3560502824        6.8657809112
 C         4.0806313224       -1.1273316200        5.9531753030
 C         4.7594873393       -2.1217954215        4.9465964463
 C         3.4586375444       -2.7122078679        4.2590340290
 C         2.7219582850       -3.9127135138        4.7811970408
 O         2.8779791411       -1.0037021295        6.0913135318
 O         2.9603825252       -2.1058129609        3.3078892130
 C         5.5892527616       -1.3033567470        3.9258576661
 C         5.5161253390       -3.0994192621        5.8246247140
 C         1.5463720407       -4.3662381474        3.9024841919
 C         0.2255026520       -3.5521785113        4.0370135351
 C        -1.2231777142       -4.1769238378        3.5653937141
 C        -1.4459967487       -3.6276953936        2.1277843843
 C        -1.4022173602       -4.6307816694        0.9413388275
 C        -1.2099241577       -5.7815834315        3.6138873316
 C        -2.4048605066       -3.4133020823        4.3964829632
 O         0.1688096380       -2.3077845485        4.1467849129
 O        -1.4559021119       -2.3983447092        1.8731283780
 C        -0.1396939900       -4.6529236579        0.1973755453
 C        -0.4811596942       -5.4376948168       -1.1752590448
 C        -1.4286631735       -5.0142059224       -2.3604129780
 C        -2.1304430467       -3.6041009178       -2.2693849004
 C        -3.2737394106       -3.4051574241       -3.2484294844
 O        -0.1756068083       -6.5654795510       -1.2238128645
 O        -1.4066527470       -2.5980889461       -1.9290319748
 C        -0.5803916626       -4.8924032705       -3.7060833385
 C        -2.5727879821       -6.1272682419       -2.5602614301
 C        -3.5822173490       -1.9045530026       -3.4972301781
 C        -2.4794458790       -1.0954044292       -4.1563433620
 C        -2.3443859489        0.4654149540       -3.8232799659
 C        -3.8583525922        0.9625226184       -3.9503421880
 C        -4.4499987681        0.8602316396       -5.3766209867
 C        -2.0008925705        0.5453003152       -2.3297057908
 C        -1.4883804132        1.2954226867       -4.7460559912
 O        -1.6963213219       -1.6464107839       -4.9509411242
 O        -4.5974837928        1.1236919752       -2.9937597804
 C        -5.8399689954        1.5678123866       -5.5520359087
 C        -6.7844967034        0.5704431448       -6.2548158063
 C        -6.5361298318        0.1091783171       -7.8797998637
 C        -5.8365266408       -1.3573354938       -7.9852238163
 C        -5.0085499562       -1.6095782834       -9.3573413476
 O        -7.8034587288        0.1893021455       -5.7318778200
 O        -6.2161357364       -2.2121568407       -7.2639386545
 C        -8.0128855512       -0.1137411317       -8.3252668130
 C        -5.7527391467        1.0945915207       -8.6760123023
 H         4.2022917310        4.7100270345       -5.3859726063
 H         3.2969316350        3.5693335702       -6.0400020783
 H         2.9114131374        5.4909816019       -6.3322948236
 H        -0.3377621574        3.9124184940       -2.3517957673
 H         1.5259476805        3.7205909062       -1.9234607697
 H         3.3482414198        7.0731306368       -3.1934501679
 H         2.0409299527        7.8186274125       -4.1501393613
 H         3.3765836284        6.5761114461       -4.8598457306
 H        -0.2030731697        7.0640888715       -4.5752654938
 H         0.6984662009        6.1028849587       -5.7465203312
 H        -0.3054737828        5.3215237649       -4.5595839638
 H         1.0997107239        4.8677019028        0.1391142577
 H        -0.8080982254        5.0182164600       -0.0966034229
 H        -0.6768561102        2.7095475508        4.4033824351
 H         0.3168064220        1.4449494769        4.8661270138
 H        -1.2173649198        4.3136962318        3.3080438880
 H        -1.7620297395        4.7745117265        1.7720720484
 H        -0.0011503475        4.8801910718        2.2377048174
 H        -2.7844588084        2.3862539296        1.4959458217
 H        -1.9341121463        1.0542790665        0.9345622608
 H        -2.1131864691        1.1913556266        2.5296183124
 H         1.1550966751        4.0404190505        5.1502881541
 H         1.9100796732        3.7339566903        3.5855492338
 H         4.7514518395        0.8864944527        8.5156834156
 H         3.2383768714        0.7439333123        7.3497872427
 H         5.4816401328        3.6972860323        4.8199048452
 H         4.6929755573        5.0242764833        5.4608627365
 H         4.1394617970        4.2128923084        3.8712527763
 H         4.1792061637        4.7139090853        7.3972782079
 H         2.4981320007        4.9023244430        6.6301738826
 H         2.7633758626        3.6760807759        7.9550604889
 H         5.9270384381        0.0044466921        6.3800299428
 H         5.4439853213       -0.9058196982        7.6930104949
 H         3.5751918444       -4.7940355649        4.7923386250
 H         2.5269066992       -3.5936623481        5.7493745461
 H         6.6169934475       -1.7853116740        3.8285995811
 H         5.6857411972       -0.2777901758        4.1073286593
 H         4.9975454009       -1.2790503551        3.0428146629
 H         4.8268572396       -3.4521528300        6.6933537056
 H         5.7841510383       -3.9543591068        5.1675816022
 H         6.4709609964       -2.6154576541        6.1712940192
 H         1.4022792929       -5.4739171901        4.0719762991
 H         1.7289166731       -4.3397433456        2.8268725012
 H        -1.8364356585       -5.4874658331        1.2600672598
 H        -2.1598243579       -4.3404090080        0.1498313773
 H        -0.7290944501       -6.3004651233        2.8176101644
 H        -2.2766857244       -6.0605382269        3.7583322817
 H        -0.7370213017       -6.1623349021        4.4906057615
 H        -2.0228925467       -2.7310204996        5.1415301192
 H        -2.9263362140       -2.8638059215        3.6909409308
 H        -3.0782546708       -4.2117462895        4.8730171569
 H         0.2229698625       -3.7404389979       -0.2032810499
 H         0.7049205709       -5.1137563615        0.7274540728
 H        -3.3632684422       -4.1068654955       -4.1041406568
 H        -4.1335530802       -3.7321252470       -2.6452441400
 H         0.2444924825       -4.2051274868       -3.4573702395
 H        -1.2628627154       -4.4606452646       -4.4547143001
 H        -0.4313389786       -5.9405465649       -4.0791911316
 H        -3.3879296947       -5.9498477286       -1.9434691754
 H        -2.7482450588       -6.1446220172       -3.5751972781
 H        -2.0693990076       -7.0931698015       -2.3048470403
 H        -3.8486099552       -1.5460214322       -2.4345826136
 H        -4.5061008268       -1.8518553888       -4.0583268665
 H        -3.7725525154        1.1129483152       -6.1285380532
 H        -4.6033829327       -0.2341951974       -5.5263381432
 H        -2.5435797255       -0.2370294907       -1.7047152886
 H        -1.9721634615        1.5020634698       -1.8420961211
 H        -0.9337803289        0.2260347020       -2.1768494528
 H        -1.2287464137        2.2795408873       -4.3564702651
 H        -0.5588519384        0.7129692226       -4.9787210362
 H        -1.8611275824        1.4875976772       -5.7837531002
 H        -6.2053534293        1.9864498140       -4.5602213458
 H        -5.7027846476        2.3918330308       -6.1642274332
 H        -5.6187712955       -1.3512310098      -10.2732315225
 H        -4.0484518559       -1.1584417508       -9.3623826657
 H        -4.8186094128       -2.6449572931       -9.3033449934
 H        -8.7676406010        0.4649066594       -7.9028808535
 H        -8.3915336593       -1.1600959180       -8.0256042191
 H        -8.0063301842       -0.0765387530       -9.3852583908
 H        -5.7392594117        0.9989160885       -9.7899461937
 H        -6.0627359222        2.1247922309       -8.5955333992
 H        -4.6545329099        1.1818036718       -8.5269795800
 Na        1.3606940005       -0.4121266197        3.6849660347
