155

 C         5.5092735833        7.1883368078        6.5579939883
 C         4.9620357219        6.6381793549        5.2265347346
 C         5.9683596232        6.3004792822        4.0810879226
 C         6.2723730514        4.6738290705        4.0580545619
 C         6.1736193145        4.0203997707        2.6772099071
 C         5.0628608195        6.6284468416        2.8275197640
 C         7.2026482683        7.2518868102        4.3338124165
 O         3.7496885050        6.4886857153        5.0652998203
 O         6.6842156829        4.1232382825        5.0895460344
 C         6.4810788151        2.4326706661        2.9486594780
 C         5.8721399531        1.6625286921        1.7929383874
 C         4.5381611724        0.6317168431        2.1448736085
 C         3.2893829040        1.3474377899        2.7570602100
 C         3.2843834144        1.4933290487        4.2798465476
 O         6.3167729837        1.4963324591        0.6855193858
 O         2.4200769005        1.8686268374        2.0714451637
 C         4.1316358444       -0.1675326051        0.9372067295
 C         5.1323007131       -0.4615410558        3.1736851152
 C         2.3387864015        2.6018963577        4.9030549324
 C         0.8684529154        2.1496375197        4.9472344398
 C        -0.4701137985        3.2624648455        4.8115002093
 C        -1.6137928116        2.4597535899        4.2786684855
 C        -2.8039341442        2.2807514325        5.1454613319
 C        -0.7528406979        3.7443404538        6.1961835078
 C        -0.1059761123        4.4776789233        3.8849525573
 O         0.6032292582        0.9848995872        5.2062242956
 O        -1.4393240581        1.8683367035        3.1704898019
 C        -4.0545502449        1.6790630001        4.4397537031
 C        -4.9271893704        2.8881691003        3.9133480643
 C        -6.0471442614        2.6745026544        2.7925572505
 C        -5.2319163087        2.6097439906        1.3866393579
 C        -4.6537199386        3.8687427134        0.6038735454
 O        -4.7618926371        4.0772772477        4.1787420553
 O        -4.9321252914        1.4552990783        1.0712010901
 C        -6.5610637454        1.2422230133        2.9746737113
 C        -7.1901564653        3.6800886855        2.8086374849
 C        -3.7506875874        3.4024148098       -0.7075433055
 C        -2.3755599159        2.9400904265       -0.4251531154
 C        -1.7442493001        1.7329869494       -1.1698793284
 C        -1.5556744508        0.4222628081       -0.2520824433
 C        -2.8083316266       -0.4204600653        0.1124066955
 C        -2.4573075333        1.3286212114       -2.5212367482
 C        -0.2401566529        2.1490436356       -1.5843913547
 O        -1.6505135458        3.4610976605        0.3822795988
 O        -0.3654054982        0.1413602132        0.0909398800
 C        -2.8314152929       -1.8330835806       -0.6501655158
 C        -1.8852204742       -2.8913056297       -0.1745420730
 C        -2.0200526844       -4.4488065034       -0.3775070839
 C        -2.7220054093       -4.7507005682       -1.8460114918
 C        -1.9917051352       -5.8117892793       -2.6719352966
 O        -0.9927251838       -2.4846512771        0.5136300404
 O        -3.6654815295       -4.1257074724       -2.2208289928
 C        -0.5594346138       -5.0765468945       -0.2420568105
 C        -2.9549590853       -4.9907728152        0.7769758360
 C        -1.8332373073       -5.2570384988       -4.0986531694
 C        -0.9457076733       -3.8988048242       -4.1842724109
 C        -1.6178321793       -2.8414508980       -5.0744466020
 C        -1.9231240679       -3.3087338367       -6.5164372579
 C        -0.9404475209       -4.0540974794       -7.3560949210
 C        -3.0045438153       -2.3559807393       -4.5232545639
 C        -0.5659643960       -1.7465008954       -4.8838651604
 O         0.0808058916       -3.8131723583       -3.5601784484
 O        -3.0811149341       -3.1138458208       -6.8825933097
 C        -1.5565937660       -4.7566238179       -8.5528117627
 C        -0.8013271745       -6.0441788504       -9.1068197043
 C        -1.5473205361       -7.4490324983       -9.0958572297
 C        -1.4174727325       -7.8291872383       -7.6092313239
 C        -0.1814163054       -8.5299664093       -7.0835104236
 O         0.1928967705       -5.9597733537       -9.8604531354
 O        -2.2473114789       -7.3652307359       -6.7550456332
 C        -3.1099663980       -7.6048808552       -9.4041954328
 C        -0.6914030536       -8.2454697370      -10.1575425126
 H         5.5623436718        8.3217098833        6.4737799833
 H         4.6266947077        7.0849804672        7.1993047263
 H         6.3416394161        6.6604563359        6.8302060534
 H         5.1699198409        4.1075353134        2.2329990867
 H         6.9732401523        4.3892139876        2.0412922284
 H         4.8854892849        7.6060563149        2.7339492936
 H         4.1641479949        6.1184639119        3.0162913559
 H         5.6296871680        6.5307531637        2.0017114313
 H         7.8368647662        7.5254260520        3.4375549393
 H         6.8533395838        8.2164264396        4.7065438070
 H         7.7384281158        6.9305590523        5.1549846440
 H         7.5707966191        2.2066742177        2.8095370052
 H         6.1835154247        2.0943690310        3.8584472894
 H         3.0266241932        0.5242940193        4.7653774157
 H         4.2730552906        1.7608671111        4.5656765322
 H         3.7239227295       -1.2079324368        1.1762947330
 H         5.1095262205       -0.4732318810        0.4260516439
 H         3.5320742615        0.3651998075        0.2280550631
 H         5.9487224724       -0.8251698034        2.6387400657
 H         5.3610641709       -0.1861663939        4.2041443549
 H         4.4857381448       -1.3232960463        3.0700338602
 H         2.3203749133        3.6431998571        4.4489744579
 H         2.6278058963        2.5443037895        5.8904186390
 H        -2.5878227012        1.7435109387        6.1099164003
 H        -3.2399883096        3.2357267372        5.4335205850
 H        -1.7441129654        4.0733425165        6.3107555296
 H        -0.2187455009        4.6195286799        6.4892936996
 H        -0.5532124914        2.8618614818        6.8471369459
 H         0.9921150296        4.3069916606        3.5565860491
 H        -0.8101844555        4.5800618922        3.0962717619
 H        -0.1273717273        5.4787735353        4.4498755956
 H        -3.8062323975        1.1798475784        3.4413364822
 H        -4.6451169660        0.9404970077        4.9817030053
 H        -5.4500264210        4.5519865452        0.3901923716
 H        -4.0128827259        4.4691919497        1.3750687144
 H        -6.8590470155        1.0425872386        1.9911018185
 H        -7.3776571698        1.0088225564        3.6590770003
 H        -5.7035095706        0.6821140340        3.3220861132
 H        -6.9812444185        4.7369338418        2.7270884422
 H        -7.8959143604        3.3412862025        2.0427959572
 H        -7.6599067338        3.7606786240        3.7520124319
 H        -3.7037216956        4.3082917463       -1.3281000981
 H        -4.0959355322        2.5616367838       -1.3064301257
 H        -2.7594707906       -0.5826991713        1.2444751763
 H        -3.6513036545        0.0760160151       -0.1942011295
 H        -1.6934035251        1.1276428675       -3.2860125852
 H        -3.0769971119        2.1662398978       -3.0611930795
 H        -3.0883050044        0.3368284967       -2.4399458257
 H         0.2827855648        2.8851067253       -0.8992590018
 H         0.3544473287        1.2307110515       -1.7178368969
 H        -0.2768655335        2.6693968595       -2.5101772154
 H        -3.7350410803       -2.3601933797       -0.3959843521
 H        -2.7189869024       -1.7640601248       -1.7175495817
 H        -1.0131867940       -5.9707865579       -2.2503873957
 H        -2.6233739814       -6.6934738181       -2.7221685207
 H        -0.1339067458       -4.5517206091       -1.0824123605
 H        -0.5725816724       -6.2130851201       -0.3349578063
 H        -0.0400835252       -4.6924639275        0.7083873691
 H        -2.5125021612       -4.6475049252        1.7672547015
 H        -3.9793577504       -4.5106779844        0.7100896485
 H        -3.1934742579       -6.0523776922        0.9750418995
 H        -2.7669155726       -4.9267204949       -4.3990509799
 H        -1.5682298212       -6.0103570792       -4.7903011521
 H        -0.3378072130       -3.1813452956       -7.7129335603
 H        -0.2508272172       -4.6469300280       -6.6015415406
 H        -3.5716231095       -3.2335615148       -4.4686651388
 H        -3.3865251697       -1.6850291306       -5.2483828210
 H        -2.9931654752       -1.9362826721       -3.5306088504
 H         0.4087766248       -2.2276701123       -5.2053715901
 H        -0.8409482914       -0.8534882415       -5.4897047036
 H        -0.5510301250       -1.4042264511       -3.8468916779
 H        -2.4986373920       -5.1480090247       -8.1919692571
 H        -1.7453821705       -3.9151652242       -9.2915908028
 H         0.7226993036       -7.7770693887       -6.9223648962
 H        -0.2531256031       -8.9118069535       -6.0956858999
 H         0.1416909063       -9.2532469444       -7.8399037523
 H        -3.7601329699       -7.6083086623       -8.5045400674
 H        -3.3205814495       -8.6498569977       -9.7282118793
 H        -3.5094038289       -6.8594931441      -10.1131929835
 H         0.2053914187       -8.4050787665       -9.6665767641
 H        -1.1178515908       -9.2005279554      -10.3352033373
 H        -0.6197422765       -7.8571601418      -11.1073860981
 Na        0.1488694211        2.3672231360        1.4299957259
