155

 C         5.6492044200        7.0057158708        6.5224691819
 C         5.1166598145        6.6620205523        5.1039634837
 C         6.0308328524        6.2981062747        3.8969830578
 C         6.3603024501        4.7717686567        3.9222527138
 C         6.5315625134        4.0028562390        2.6135611291
 C         5.4828829024        6.8063339262        2.5021509486
 C         7.4675995958        7.0860225129        3.9695264856
 O         3.9201294274        6.5194573852        4.9505877421
 O         6.8169191591        4.3192599990        4.9122803950
 C         6.5596998400        2.5392528199        2.7611349373
 C         5.8519262963        1.5396301283        1.6912783832
 C         4.7246113250        0.4717608828        2.0977313767
 C         3.4556137218        1.2817849066        2.9121848249
 C         3.2862555888        1.4285824317        4.3825857944
 O         6.0707328120        1.4684898399        0.5384334391
 O         2.5389394961        1.7068204917        2.1902684799
 C         4.0281757696       -0.1763676593        0.9037631365
 C         5.4535251470       -0.4298892858        3.1534212880
 C         2.3668956486        2.6462917113        4.6141574826
 C         0.8687953266        2.1689703512        4.8657203191
 C        -0.3072643184        3.1842146853        4.7080188318
 C        -1.5238949076        2.2951931044        4.1649969158
 C        -2.7465057879        2.0385897991        4.9767240497
 C        -0.3944892669        3.7304856047        6.1401951532
 C        -0.0321972962        4.3223828648        3.6862544967
 O         0.6076906071        1.0602985955        5.1965800405
 O        -1.4510586277        1.9224649665        3.0425096242
 C        -3.9378369431        1.6051566319        4.0931318598
 C        -4.9886750480        2.8450119107        3.9393261536
 C        -6.0974335001        2.4437256048        2.7927032277
 C        -5.3513610182        2.3442425561        1.3743690644
 C        -4.6744989159        3.7148212819        0.9142845356
 O        -5.0208753895        3.8452414414        4.5928475185
 O        -5.0098761382        1.3490203879        0.8042018435
 C        -6.8493071612        1.1446761384        3.0167988543
 C        -7.0993939289        3.6174448258        2.8627399176
 C        -3.9147391647        3.4865164236       -0.3925315135
 C        -2.4437209369        2.9004875719       -0.1603769509
 C        -1.7881652408        1.8540147426       -1.1874616651
 C        -1.5333067351        0.5097058428       -0.1283967408
 C        -2.6662032231       -0.3542054855        0.0580986891
 C        -2.6745855937        1.2707882884       -2.3532799762
 C        -0.4991477485        2.4323765385       -1.6962470220
 O        -1.7005889027        3.3534739513        0.7455394350
 O        -0.5444339124        0.2830678410        0.4544110437
 C        -2.8232355975       -1.5902615636       -0.7050500261
 C        -1.7658834480       -2.7069468298       -0.1005576530
 C        -1.9944155600       -4.2105269624       -0.5195932442
 C        -2.7505239408       -4.5940527207       -1.7753142973
 C        -2.2046704133       -5.6673887459       -2.7540609741
 O        -1.1102556710       -2.3607242083        0.8518113171
 O        -3.9035141355       -4.1362347952       -1.9359731857
 C        -0.4978689224       -4.8439798348       -0.3508157665
 C        -2.9167141813       -4.7925712281        0.6469284674
 C        -2.0517741475       -5.1749591406       -4.1828214673
 C        -1.1440365912       -3.9646744034       -4.2433792974
 C        -1.6544839782       -2.6927236152       -5.0430618402
 C        -1.8906551754       -3.1719285768       -6.4586309889
 C        -0.9641012776       -4.1764003417       -7.1809652891
 C        -2.8799561817       -2.0616628616       -4.3239288286
 C        -0.5916369018       -1.3675368120       -5.0955161440
 O        -0.0990151843       -3.9994389803       -3.5933511460
 O        -2.9651289065       -2.9007124894       -6.9407366948
 C        -1.8613256406       -4.7562983807       -8.2827070734
 C        -1.0154247538       -5.9139893266       -8.9886667508
 C        -1.5201376197       -7.4822661312       -9.0679773875
 C        -1.4281981053       -7.9499464647       -7.5359699932
 C        -0.1659659463       -8.7956947976       -7.2939798944
 O         0.0070957172       -5.6442120275       -9.5190107798
 O        -2.2064117673       -7.6991182746       -6.6939151297
 C        -3.1090384396       -7.4607362699       -9.4244974794
 C        -0.7447916700       -8.5043450057      -10.0188357547
 H         6.0278177394        7.9684916827        6.5688831484
 H         4.7614455251        6.9164542692        7.2426603874
 H         6.4405633425        6.1647798241        6.6612720944
 H         5.7662734779        4.2403889801        1.8952923139
 H         7.5258870881        4.2758378517        2.2503720753
 H         5.1961328023        7.9686564807        2.6539577408
 H         4.4810890214        6.3544956145        2.2990444011
 H         6.3491420309        6.8463460952        1.7522481203
 H         8.0304373354        6.8555253432        3.0490946200
 H         7.3249775664        8.2020154854        3.9993411959
 H         8.1435428208        6.8894720872        4.8564087483
 H         7.4822519878        2.0992122046        3.0291986931
 H         5.8408331682        2.3706187010        3.6832557464
 H         2.7479612977        0.5212218709        4.6120872371
 H         4.2333419856        1.4327525729        4.9780106291
 H         3.4693981235       -1.0537967479        1.1883264087
 H         4.6878534542       -0.5266732228        0.1537965054
 H         3.3471286990        0.6253448391        0.4434810644
 H         6.2427224863       -0.9563233011        2.4961357019
 H         5.8352948020        0.1828629999        3.9756095595
 H         4.8566285411       -1.2521144577        3.4782829571
 H         2.2808950381        3.2277123854        3.7789486345
 H         2.7708700715        3.2452551829        5.5379778857
 H        -2.7239889932        1.3109925675        5.7467987299
 H        -3.1453825966        2.9407181184        5.4909599957
 H        -0.3396490350        4.9011465404        6.2627747617
 H         0.5489040313        3.3370856591        6.6288947089
 H        -1.1726449731        3.3307348867        6.8054070820
 H         0.7807786320        4.8631665555        4.0530577286
 H         0.0085125999        3.8796960357        2.6676516619
 H        -0.8397728355        4.9836052423        3.5897915649
 H        -3.5844407527        1.2363728293        3.1511908049
 H        -4.4456691256        0.8032858726        4.6196981814
 H        -5.3536247705        4.6108550823        0.6444422589
 H        -4.1945601738        4.0153909236        1.7975119828
 H        -7.8002544861        1.2850012423        2.3657981564
 H        -7.0531850338        1.1008518269        4.1085325223
 H        -6.2468917169        0.2300554653        2.8349345655
 H        -6.6914834973        4.5606044280        3.2547306471
 H        -7.6006574049        3.7253460773        1.9092431831
 H        -7.8888631371        3.5535871246        3.6354142557
 H        -3.8567836221        4.4430563191       -0.8902767583
 H        -4.4611591955        2.7161827750       -0.9708538152
 H        -2.7058460195       -0.4266833321        1.0973871238
 H        -3.6347078140        0.2380981087       -0.3024050069
 H        -1.9902569167        0.6440967853       -2.9460403088
 H        -2.8533126311        2.0611730490       -2.9714392676
 H        -3.5530802292        0.7389019786       -2.1870406332
 H         0.1108681802        2.6931038005       -0.8137398293
 H         0.0978646694        1.7674289597       -2.3696293826
 H        -0.6053406999        3.4471459221       -2.2283804301
 H        -3.9191114502       -1.9101007634       -0.5501775216
 H        -2.5821383449       -1.3696009405       -1.7504058731
 H        -1.2560208935       -6.0440135319       -2.3215298791
 H        -3.0261402288       -6.3917602732       -2.8550833634
 H         0.1174683251       -4.5571446728       -1.1717371723
 H        -0.4152612235       -5.9112780587       -0.1937740176
 H        -0.2898961766       -4.4224498932        0.5535768762
 H        -2.3919189562       -5.0174685017        1.6173716250
 H        -3.7935060903       -4.1916201767        0.8552330251
 H        -3.3331093128       -5.7961490217        0.3459198229
 H        -3.0722147647       -5.0083666632       -4.6674760482
 H        -1.4304350121       -5.8644580422       -4.8558404802
 H        -0.1344084370       -3.9118736346       -7.8001065957
 H        -0.7217982282       -4.8920993591       -6.4572075222
 H        -3.6973187286       -2.8089211851       -4.2956639699
 H        -3.0598417360       -1.0415029441       -4.7250575643
 H        -2.5324914461       -2.0313516838       -3.3059099444
 H         0.1879436140       -1.6098094268       -5.7444984227
 H        -1.1600858391       -0.4813035466       -5.3679986509
 H        -0.1935638689       -1.1299000713       -4.0837199903
 H        -2.9649104875       -4.9196902654       -8.0389733923
 H        -1.8749934093       -3.9669458304       -9.0009276741
 H         0.6606450715       -8.3437611263       -7.7351704573
 H         0.0665538073       -8.8488795909       -6.2393197862
 H        -0.2236226953       -9.7346732746       -7.7472205155
 H        -3.5049108761       -6.4730164954       -9.1838124363
 H        -3.7156535497       -8.1183932628       -8.7930095081
 H        -3.3761969337       -7.5803805700      -10.4575995453
 H         0.3862795819       -8.2448451526      -10.1153175115
 H        -0.8781721498       -9.5486833362       -9.7303464219
 H        -1.1805749423       -8.4726118559      -11.0437897479
 Na        0.1622433702        2.0147842353        1.4490536811
