155

 C         6.2459008452        6.7904170502        5.7921493967
 C         5.7455581557        6.7148950401        4.3330034860
 C         6.8228404902        6.3157273039        3.3083417783
 C         6.9864266474        4.7012473178        3.3284202227
 C         6.7211854943        3.8765370220        2.1300295010
 C         6.2929511391        6.8206582375        1.8651897024
 C         8.1789041681        6.8563286676        3.8085019064
 O         4.6129760489        6.6114153565        3.9625828906
 O         7.5455280194        4.2242774405        4.2708748494
 C         6.9207470084        2.3248247187        2.0456402402
 C         5.6525502202        1.7660709548        1.3718254606
 C         4.9018084016        0.3893965771        2.1942933559
 C         3.5462403232        1.1215229261        2.7388024569
 C         3.4306232450        1.4654023687        4.2730712343
 O         5.0756826683        2.3011506082        0.4518078764
 O         2.6238592675        1.3497272029        1.9953034886
 C         4.4893248909       -0.7699751767        1.2421418535
 C         5.8703910289       -0.0684957201        3.3569304299
 C         2.4871182763        2.6373296993        4.3438881799
 C         0.9436574500        1.9923690511        4.3273814075
 C        -0.2356878444        2.9212575405        4.7362145193
 C        -1.4635996583        2.0631987507        4.2392919968
 C        -2.7597556261        2.1045043593        4.9281083479
 C        -0.0542243766        3.3975037112        6.2501562341
 C        -0.1546441607        4.1566612897        3.8045102001
 O         0.7612022466        0.8345363519        4.3657819242
 O        -1.4211626311        1.3167190558        3.2661969404
 C        -3.9267091351        1.4524121721        4.1523502292
 C        -5.2071309179        2.3947005485        4.4408705980
 C        -6.3236328608        2.3345531318        3.2866734377
 C        -5.5551921130        2.5196929233        1.8879317842
 C        -4.6156988571        3.7183558873        1.6198052737
 O        -5.3182303720        3.0461071513        5.4568919961
 O        -5.7970541241        1.8877634327        0.9092377489
 C        -6.8053238956        0.8883172580        3.1543511006
 C        -7.5108171203        3.3432566941        3.5536842754
 C        -4.0024883674        3.3794357693        0.2863668376
 C        -2.4226525732        3.0827950452        0.1853250001
 C        -1.9143451787        2.1346124407       -0.8728553552
 C        -1.6427887333        0.7618148385       -0.0565194559
 C        -2.7129592038       -0.0964729604        0.4855828806
 C        -2.9500752733        1.7556724234       -1.9983800170
 C        -0.6759330986        2.6721554139       -1.7183499795
 O        -1.5782006437        3.3654981903        0.9603160046
 O        -0.4714788350        0.5249586929        0.0086494791
 C        -2.9629487213       -1.5590837204       -0.3216151329
 C        -2.0963885847       -2.6482546081        0.4295875627
 C        -1.9994126211       -4.2127541233       -0.3106022658
 C        -2.9614667611       -4.4434458301       -1.5152885404
 C        -2.7956346248       -5.2190677716       -2.8677100504
 O        -1.4533890163       -2.3842181643        1.4090738533
 O        -4.0411146733       -3.9639803733       -1.3165407597
 C        -0.3819289410       -4.4727801592       -0.4488005693
 C        -2.6246566727       -5.1554676137        0.7209088174
 C        -2.8499493051       -4.3179932861       -4.1714278386
 C        -1.6684619363       -3.4190698200       -4.3416974120
 C        -1.6516793432       -2.2740873066       -5.2823495987
 C        -2.2045640934       -2.6736328001       -6.6779630511
 C        -1.5361860926       -3.8222176215       -7.5992690473
 C        -2.6288527286       -1.2116361588       -4.7293119352
 C        -0.2284920913       -1.8339709535       -5.3098692604
 O        -0.6530851070       -3.6130763135       -3.6530995298
 O        -3.1677321173       -2.1299007469       -7.1324664436
 C        -2.3465420653       -5.2000174061       -7.9557797884
 C        -1.2456440184       -6.1779396739       -8.4726300247
 C        -1.7493402150       -7.6402806131       -8.9237256652
 C        -1.4534973965       -8.5836944922       -7.6045312705
 C        -0.1069976314       -9.4159878642       -7.6205175375
 O        -0.1842292885       -5.7875840223       -8.8044327348
 O        -2.0460907958       -8.3658346475       -6.5710688022
 C        -3.2664301271       -7.6767541073       -9.3644623746
 C        -0.8783711772       -8.0368781294      -10.1472862597
 H         6.6865634601        7.7329041222        6.0385983366
 H         5.5219867548        6.3987110814        6.4534966858
 H         7.0940801315        6.1275150336        5.7785253593
 H         5.6736317377        4.1110652884        1.8280746156
 H         7.2393625188        4.3351959395        1.3016627357
 H         5.9266324288        7.8116631190        2.1628678728
 H         5.4476861219        6.2349793273        1.4866490236
 H         7.0444256690        6.6499933742        1.0585302713
 H         8.8836372422        6.9887627260        3.0564797507
 H         7.9684802111        7.8172315949        4.2361384897
 H         8.7959835908        6.1281705339        4.4506169285
 H         7.7960933801        2.2880045924        1.2803310911
 H         7.3476401360        1.9201420610        2.9245655746
 H         3.1490914184        0.6261330633        4.9876604344
 H         4.3894395328        1.8460498337        4.5693157746
 H         4.3132356476       -1.7391249781        1.7099548461
 H         5.3315030523       -0.7987464321        0.4870670322
 H         3.6140039599       -0.4896413230        0.6830513495
 H         6.6838674202       -0.3046676222        2.7200485131
 H         6.3300683232        0.5852531973        4.0486242687
 H         5.4273258896       -1.0427118313        3.8071230792
 H         2.6397710564        3.4048461420        3.5146297837
 H         2.5973317119        3.1974583416        5.2687658187
 H        -2.8315136000        1.7525138556        5.9848528309
 H        -3.0120694642        3.1304728687        4.9562279155
 H         0.9111628786        3.3746336726        6.7190458979
 H        -0.7550920096        2.7387101424        6.8484983276
 H        -0.3091445844        4.4107883435        6.5773797473
 H        -0.3092566091        3.7371258830        2.8560285291
 H        -1.0068755917        4.8052858392        3.9761273116
 H         0.7901483321        4.7086533890        3.7864732470
 H        -3.7117346013        1.3256168581        3.0822779317
 H        -4.1352859566        0.4589316423        4.6740375992
 H        -5.2434075375        4.5394612718        1.4638538867
 H        -3.8381238754        3.9747195196        2.3243000219
 H        -7.1873321647        0.6247889328        2.1971617718
 H        -7.5348070529        0.7071606040        3.9251346547
 H        -5.9269547499        0.1991274381        3.1122275215
 H        -7.4366225356        4.3711922527        3.3303739802
 H        -8.4335333181        3.0151792803        3.0322840492
 H        -7.8486133784        3.1309973967        4.5835543407
 H        -4.0440875862        4.2741451864       -0.4066258202
 H        -4.4316438445        2.4716317615       -0.0995373618
 H        -2.5462636717       -0.3990485743        1.5767429449
 H        -3.6304393729        0.4498870838        0.5240257277
 H        -2.5449158283        1.8608777820       -3.0304722760
 H        -3.7407647655        2.3861962659       -1.8351616852
 H        -3.3509159255        0.8257886862       -1.8862885280
 H        -0.0316512663        3.1938031844       -1.0771367820
 H        -0.1500316717        1.8556616176       -2.2079466120
 H        -1.0619292151        3.3110203039       -2.5424796422
 H        -3.8682900353       -1.9290466296       -0.1497215252
 H        -2.5541990754       -1.5207859642       -1.3886878794
 H        -1.8600989429       -5.7783817086       -2.8355987582
 H        -3.5677172339       -6.0030992182       -2.9134442021
 H         0.1216650524       -3.6256162034       -1.0402176701
 H        -0.1327117898       -5.4065659857       -0.9082917294
 H        -0.0932641760       -4.4014354328        0.6199232261
 H        -2.1159718105       -5.1890075037        1.5903204348
 H        -3.4145207688       -4.5756530459        1.1781239622
 H        -2.8626089125       -6.1224427814        0.4573282805
 H        -3.7857447249       -3.6907800496       -4.1513135950
 H        -2.9612763590       -4.9382851343       -5.0448482711
 H        -1.3330136035       -3.4568827532       -8.6643330587
 H        -0.5939207879       -4.2171461759       -7.1402456894
 H        -2.4358615742       -1.0427140808       -3.6560961465
 H        -3.4800403263       -1.8934500099       -4.7406113355
 H        -2.6759023479       -0.2908839287       -5.3609137068
 H         0.2915583299       -2.3629656445       -6.1595760648
 H        -0.2420425855       -0.7819444979       -5.4776905411
 H         0.2080587378       -2.0697523829       -4.4039629149
 H        -2.8774950493       -5.7670674319       -7.2488414619
 H        -3.3088178915       -4.8839302738       -8.4773575852
 H        -0.0734187591      -10.0725455970       -8.4244607324
 H         0.7252331242       -8.6456311112       -7.6583476855
 H         0.0857880737       -9.9879990887       -6.6229706567
 H        -3.3289988872       -8.7104096236       -9.6816865346
 H        -3.5263795757       -7.0645413745      -10.1516905551
 H        -4.0123396843       -7.4166581826       -8.6106180293
 H         0.1660134941       -7.6380810236      -10.1511196968
 H        -0.7922928397       -9.1414464577      -10.3697900464
 H        -1.3058997179       -7.4044544139      -11.0223623773
 Na        0.3625675379        1.8437039804        1.4433413953
