155

 C         6.1581165194        6.9147212988        5.7322004509
 C         5.8655807241        6.5274888518        4.2135505218
 C         7.1477940869        6.2007599356        3.1631415937
 C         7.3637063308        4.7019813710        3.0236336988
 C         6.9239642708        4.1175195508        1.7186256265
 C         6.8219900060        6.8704975500        1.8855091361
 C         8.4347025071        6.8798136339        3.5829998282
 O         4.7649778021        6.6920974652        3.7201308156
 O         7.9323596950        3.9343489602        3.8017227111
 C         6.9014014524        2.4507705614        1.7452991481
 C         5.4963505996        1.7477074934        1.3487543532
 C         4.8951254775        0.4323839439        2.1362838314
 C         3.5193644470        1.0921582386        2.7652066833
 C         3.5972584808        1.7979687461        4.1399502025
 O         4.8134920086        2.1200431325        0.4273472977
 O         2.5339400153        0.9854327284        2.0261872719
 C         4.6852782440       -0.6916316826        1.1775087472
 C         5.9202806368        0.1293667316        3.3705397207
 C         2.3783003263        2.6656326827        4.2813037723
 C         1.0952600669        1.8618779449        4.1986820855
 C        -0.1884360270        2.6680322448        4.7119718951
 C        -1.4481465032        2.0913564575        4.1980819903
 C        -2.6532820992        2.1793065023        5.0839106249
 C        -0.2149772517        2.8485590253        6.2671423982
 C        -0.3254745786        4.1594250046        4.0041852843
 O         1.0940662111        0.6155463808        4.1467551986
 O        -1.5058001169        1.5954126825        3.0704891697
 C        -3.9604237458        1.5432978926        4.4441953414
 C        -5.2990501356        2.4096045585        4.6337099937
 C        -6.2810571508        2.2590321135        3.4968152509
 C        -5.5624528502        2.5090682545        2.0393551662
 C        -4.5014873082        3.5704569386        1.9286471926
 O        -5.6962965272        3.0379234421        5.6102982162
 O        -6.1059518669        2.0520680975        1.0075314738
 C        -6.7569983273        0.7720868992        3.5370815817
 C        -7.5167993994        3.1598714476        3.5209783541
 C        -3.9135015131        3.6505600151        0.4098231276
 C        -2.4917697787        3.0268198639        0.3642629885
 C        -1.9568429274        2.0067394657       -0.8435264117
 C        -1.5572485691        0.6670784548       -0.2313309171
 C        -2.5894141255       -0.2091891003        0.4407150516
 C        -3.0855208424        1.8759998073       -1.8688267424
 C        -0.7227162462        2.6553596546       -1.4322103885
 O        -1.5617546919        3.3659740802        1.1391664430
 O        -0.3863028337        0.1821085386       -0.3152192981
 C        -2.8898186321       -1.4893774073       -0.1858362722
 C        -2.1638409108       -2.7205302823        0.4533136573
 C        -2.1360951103       -4.0316614952       -0.2995076055
 C        -3.3053852056       -4.2357677813       -1.3731302346
 C        -2.8630223029       -4.9610147957       -2.7011142625
 O        -1.6811388423       -2.5260133149        1.5360916257
 O        -4.4324156625       -3.8147755226       -1.1691178147
 C        -0.6110398087       -4.2930901144       -0.8122643577
 C        -2.4158649767       -5.1044630328        0.6828220867
 C        -2.9380606502       -4.1063520543       -3.8931601580
 C        -1.6578421179       -3.3454097984       -4.2165930225
 C        -1.6576637551       -2.2153821477       -5.4207920676
 C        -2.3120756935       -2.6922801406       -6.7931840635
 C        -1.5778204009       -3.8302819637       -7.4164601047
 C        -2.5089610854       -0.9192776908       -4.8047460653
 C        -0.2382376566       -1.5645251084       -5.9056312639
 O        -0.7019101580       -3.6045888706       -3.5717373651
 O        -3.4305704540       -2.3556843126       -7.1558444550
 C        -2.2774274864       -5.0881654412       -7.8845876993
 C        -1.3101762383       -6.0449342860       -8.6462361648
 C        -1.7464120804       -7.5254483749       -8.9288679913
 C        -1.3469932398       -8.5639653285       -7.5986405650
 C        -0.2059840243       -9.5751569072       -7.7920663371
 O        -0.0339057085       -5.8027079609       -8.5758233042
 O        -2.1471413461       -8.6088175921       -6.6594313780
 C        -3.3053787632       -7.6615973333       -8.9770485650
 C        -1.0070779350       -8.1717718831      -10.1106077599
 H         6.9197333816        7.8548939190        5.6930969778
 H         5.1830466391        7.1347144091        6.1784858580
 H         6.6572975433        6.1196452739        6.3352214342
 H         5.8950833070        4.3684530491        1.4575820825
 H         7.5158522416        4.6454443552        0.9128668643
 H         6.6966096646        7.8796403147        2.1141364065
 H         6.0579813391        6.3586537906        1.2986876499
 H         7.6106130109        6.6885657007        1.2023639745
 H         9.3812139316        6.5407970786        3.0019365603
 H         8.3792731242        7.9346055548        3.2765535572
 H         8.6096073150        6.7431065412        4.6086821753
 H         7.6965133947        2.1127280271        1.1605934066
 H         7.1436042710        2.1563409637        2.7971913587
 H         3.5645065728        0.8903125983        4.7070085601
 H         4.5520975118        2.3374090550        4.3704099914
 H         4.4387772450       -1.5750860284        1.8389101826
 H         5.5017923889       -0.8215081147        0.4423105360
 H         3.7792540958       -0.4983396805        0.5758357174
 H         6.9053310571       -0.2775915568        3.2124520271
 H         6.0513953758        1.0808159618        3.8908428291
 H         5.3810705631       -0.5288080747        3.9915815984
 H         2.3259957621        3.4797581123        3.5565654191
 H         2.2061898004        3.2363864931        5.1847625915
 H        -2.3960094838        1.6270306330        5.9709493678
 H        -2.7294802039        3.2807926492        5.4040461292
 H         0.4321163278        3.5663514211        6.7052303800
 H         0.0235845530        1.9594752683        6.7858685921
 H        -1.1484463210        3.1466007970        6.7013988535
 H         0.6116960600        4.5731672011        3.4219312795
 H        -1.2268847641        4.1583032802        3.3650167177
 H        -0.3447688979        4.8981293003        4.8055031288
 H        -3.8663476752        1.4886563648        3.3394784522
 H        -3.9844206950        0.5809488105        4.8571120881
 H        -4.9918977321        4.5981007375        1.9269161765
 H        -3.8036409189        3.4983819004        2.7948651979
 H        -7.5433468252        0.5309695208        2.8205447292
 H        -7.2677455906        0.6374764452        4.4869025968
 H        -5.9771252304        0.0654556073        3.3913953435
 H        -7.2649609761        4.1732961906        3.1440949031
 H        -8.3886458785        2.9170612251        2.9545326226
 H        -7.8315778450        3.1964064044        4.5200971391
 H        -3.8836661151        4.6517937637        0.0635181852
 H        -4.4618498046        2.9197760231       -0.2336010816
 H        -2.2833995248       -0.4621641965        1.4421775171
 H        -3.5751031277        0.1919480635        0.6986398737
 H        -2.7044126099        1.1204970763       -2.5546862021
 H        -3.3236571890        2.8706551580       -2.4403773237
 H        -4.0592751698        1.5033739285       -1.3667269605
 H         0.0042558242        2.6111530388       -0.5930959622
 H        -0.3861200960        2.0559431478       -2.2532535031
 H        -0.9294992226        3.6181449589       -1.7549394017
 H        -4.0417813782       -1.7017403833       -0.0092785976
 H        -2.5938707099       -1.3679813259       -1.1695123057
 H        -1.8502388806       -5.3619140480       -2.5550163382
 H        -3.3743093314       -5.9334016512       -2.8055792501
 H        -0.4448329193       -3.7923281161       -1.7541511978
 H        -0.4999586150       -5.3949942099       -0.9127351928
 H         0.0837913206       -3.8433667135       -0.0291824420
 H        -1.9099159005       -4.9923684258        1.6830898399
 H        -3.4974415640       -5.0890644031        1.0608235654
 H        -2.3586508608       -6.1718028835        0.2990051116
 H        -3.8405367592       -3.5721453768       -3.8571193508
 H        -3.0073827645       -4.7346573786       -4.7986224696
 H        -1.1095389914       -3.3852867553       -8.2747973517
 H        -0.7453514506       -4.2330092132       -6.7912101697
 H        -1.7640683389       -0.3434294855       -4.2870219940
 H        -3.3067868779       -1.2199553641       -4.1327601683
 H        -2.7544726384       -0.3715702751       -5.6796866312
 H         0.1062212586       -2.3338703090       -6.5703027850
 H        -0.3075544381       -0.6836757282       -6.5701563892
 H         0.4195268472       -1.5125757292       -5.0015628707
 H        -2.8488723933       -5.5968699949       -7.0367982212
 H        -3.1789034749       -4.8972271101       -8.3625775799
 H        -0.7009235806      -10.6135037399       -7.8513454783
 H         0.4885452827       -9.3611666081       -8.5516320134
 H         0.4142123910       -9.4944397385       -6.9124109782
 H        -3.7599833766       -8.6573142945       -8.9427688761
 H        -3.5807317976       -7.1619460490       -9.9831152601
 H        -3.7641417139       -7.0056958639       -8.2351628445
 H         0.0258123152       -7.9193590794      -10.0441691372
 H        -1.0861817435       -9.2680875688      -10.1346335011
 H        -1.3386179589       -7.8253321237      -11.0543504060
 Na        0.4473917613        1.7933371088        1.5445253132
