155

 C         6.4663705178        6.5951039999        4.9768080836
 C         6.3306670405        6.4025478268        3.4880340979
 C         7.7179242047        6.2830362633        2.7558792998
 C         7.5622798349        4.7275026871        2.4769750656
 C         6.7036949110        4.1487411243        1.3850466414
 C         7.6928717968        7.2458627784        1.4851037668
 C         9.1738642520        6.5980003557        3.4748286135
 O         5.3065705058        5.9463266249        3.0527164317
 O         8.2078555803        3.9565743408        3.1762354870
 C         6.9975961681        2.5697941847        1.3306076624
 C         5.6203610453        1.9677926063        1.1104927077
 C         5.0360107511        0.7003540522        2.0016082477
 C         3.6006452929        1.1673328157        2.4053081516
 C         3.5043301653        1.9149842475        3.7738330895
 O         4.8886132552        2.4946567791        0.3180714656
 O         2.7096210441        0.8875341046        1.6087257435
 C         4.8223673385       -0.5808332165        1.1011871025
 C         6.0182688647        0.4454560887        3.1487489647
 C         2.2836096153        2.9066987456        3.8657814816
 C         0.9704861956        2.0480721866        4.3734116905
 C        -0.2191586661        2.6459200545        5.3190459721
 C        -1.5798967487        1.8473493895        4.7361750706
 C        -2.8351016273        1.8685674596        5.6271724518
 C         0.0544220890        2.4062701156        6.7880107582
 C        -0.5192887287        4.1713185307        4.9652629712
 O         0.8439625427        0.8581486237        4.0454434149
 O        -1.5053014917        1.2808484080        3.6694230240
 C        -4.0406559641        1.2666787054        4.8833520061
 C        -5.1535327425        2.2453110971        4.7060424018
 C        -6.3319370828        2.0055518417        3.4943405068
 C        -5.6023611615        2.4061914459        2.2322394853
 C        -4.2453600828        3.0518124192        2.3236027948
 O        -5.1808810365        3.3124914131        5.3175005420
 O        -6.0385230792        2.0146879392        1.1668562013
 C        -7.1318311192        0.7580745033        3.1855632859
 C        -7.3608853722        3.1458904860        3.7916962462
 C        -3.7620760938        3.5863443472        0.9476222770
 C        -2.4063228001        3.0250169788        0.5748380188
 C        -2.1318177998        2.1678145793       -0.7678659388
 C        -1.6860369656        0.8033804211       -0.1073572896
 C        -2.7015543294       -0.1280563666        0.5840830817
 C        -3.4229951319        2.0640374689       -1.6219447418
 C        -0.8888030852        2.7664668637       -1.4821562789
 O        -1.4318996032        3.2208323765        1.3247840867
 O        -0.4806895343        0.5025290281        0.0824198032
 C        -2.8989429799       -1.3557608343       -0.0667749145
 C        -2.4707734971       -2.6260684640        0.6105639145
 C        -2.1899517758       -3.9376965317       -0.2040389760
 C        -3.3104637068       -3.9723177245       -1.3761988057
 C        -2.8665629102       -4.4006724543       -2.7233557640
 O        -2.4290007548       -2.6609568157        1.8005792726
 O        -4.4699621046       -3.6694389001       -1.2303440812
 C        -0.7045576939       -3.9465386501       -0.7164768586
 C        -2.5982171092       -5.2314517547        0.4580266592
 C        -3.0691498843       -3.2620338287       -3.7136259151
 C        -1.6689284942       -2.8746159028       -4.3902808598
 C        -1.8270849118       -1.9199512308       -5.6181220481
 C        -2.2822955831       -3.0558746186       -6.6066376072
 C        -1.4627050493       -4.1034789199       -7.2444208272
 C        -2.8826428986       -0.9496993483       -5.4967546870
 C        -0.5492837054       -1.3007519007       -6.0404838167
 O        -0.6587120068       -3.4580647628       -4.0059183731
 O        -3.4714892189       -3.0284528373       -6.7809240659
 C        -2.3090099198       -5.2378213050       -7.7883525380
 C        -1.4035034033       -6.3201408645       -8.2839699555
 C        -2.0209686224       -7.6544883884       -8.8289019561
 C        -1.4992551531       -8.5620650352       -7.7087183195
 C        -0.2332134271       -9.3615013321       -7.9501371155
 O        -0.1180484373       -6.1547949011       -8.2371585668
 O        -2.1172282704       -8.5182725445       -6.6289132987
 C        -3.5621949856       -7.4716871264       -8.8659545528
 C        -1.5043386667       -8.0876182844      -10.1993873085
 H         7.0273851362        7.5614929215        5.2486652499
 H         5.6372761325        6.3126101658        5.6254196543
 H         7.2571888554        5.8462368837        5.2270302318
 H         5.6430610081        4.4181556090        1.4245250102
 H         7.1181434187        4.5214308049        0.3917055775
 H         8.0323282846        8.1855024049        1.7437164601
 H         6.7611107503        7.2120511008        0.9378621984
 H         8.4614812800        6.9449156977        0.8104451639
 H         9.9688802620        6.7073151086        2.6987709419
 H         9.1724947793        7.5184885343        4.0330893169
 H         9.2055892243        5.9028369102        4.2528010995
 H         7.5672585019        2.4252478745        0.4432324216
 H         7.6042406373        2.2357623494        2.1913102196
 H         3.4650694467        1.1981510169        4.5840101057
 H         4.4995399895        2.4598161043        3.8879558525
 H         4.4178493066       -1.4276146586        1.6781167678
 H         5.8847220577       -0.7797886310        0.7229124978
 H         4.2743915237       -0.3097985653        0.2431046718
 H         6.9581650169        0.3910782802        2.7512434683
 H         6.0161183166        1.3038692171        3.7494556843
 H         5.9128188646       -0.4914509057        3.7267873929
 H         1.9591388186        3.0685874719        2.8095894960
 H         2.4631819497        3.8618545678        4.2565837878
 H        -2.3349486024        1.4656638378        6.4528487747
 H        -3.0550191491        2.9371064711        5.9808979343
 H         0.9858291005        2.1245648328        7.0385997457
 H        -0.4701154416        1.5419471807        7.1808920129
 H        -0.2775083880        3.2139592584        7.4281241465
 H        -1.4526617270        4.5286141913        5.4940119876
 H         0.3176347465        4.8409741115        5.0613147073
 H        -0.8270956757        4.2532539997        3.9092021907
 H        -3.7702975754        0.8174791747        3.8534137862
 H        -4.4594265214        0.4280506205        5.3936088299
 H        -4.4315096152        3.8972339826        3.0095722025
 H        -3.4375805194        2.3877631024        2.7876464225
 H        -7.6079979916        1.0673126359        2.3303691989
 H        -7.9209886731        0.4143431629        3.8026387709
 H        -6.4686033698       -0.1046799174        3.0784146056
 H        -6.8592544893        4.1011565159        4.0201685215
 H        -7.8835482148        3.4037888736        2.8652486028
 H        -8.0665154969        2.9746315207        4.5437549911
 H        -3.5656715659        4.6675182291        0.9357535868
 H        -4.6063159216        3.3038197818        0.2420773485
 H        -2.3724344825       -0.2892457542        1.5806053076
 H        -3.6815611525        0.2090306668        0.7905062636
 H        -3.4626786118        1.2703727306       -2.4102760236
 H        -3.4870286017        3.0055324604       -2.2855335041
 H        -4.3010310998        1.9866831906       -0.9614970845
 H        -0.2468938945        3.1226612027       -0.7138391915
 H        -0.3797050816        2.1236521779       -2.1415672794
 H        -1.3099868194        3.5898334369       -1.9131442204
 H        -4.0435188299       -1.5379734376       -0.0964113689
 H        -2.5862893224       -1.2283506146       -1.0643778537
 H        -1.8524813479       -4.7914684499       -2.7422928276
 H        -3.3381974810       -5.3433392939       -2.9584711523
 H        -0.3753988533       -3.0978847811       -1.4450978515
 H        -0.6146546489       -4.9546779141       -1.0559828458
 H         0.1157732428       -3.8990080880        0.1195251764
 H        -2.1130204715       -5.4585509361        1.3347262865
 H        -3.6950976053       -5.3549206801        0.5935554261
 H        -2.4523205652       -6.1190592385       -0.1161817967
 H        -3.3895257935       -2.3918146454       -3.2371675623
 H        -3.9073098618       -3.5305416865       -4.3354085354
 H        -0.7911373161       -3.9221151622       -8.0704450991
 H        -0.5840561314       -4.4951845258       -6.6441748295
 H        -3.0214906276       -0.6939860669       -4.4390525047
 H        -3.7738549046       -1.3456489319       -6.0406878514
 H        -2.4539032157       -0.1217651655       -6.0765706372
 H         0.3169338179       -1.8006432106       -5.6020175878
 H        -0.4429085197       -1.1652486007       -7.0998302852
 H        -0.5669634715       -0.3749595533       -5.5282307018
 H        -3.0548662407       -5.6934702937       -7.0261241430
 H        -3.0100268868       -4.8177766293       -8.4538735258
 H        -0.2894796550      -10.4096996091       -7.6947570818
 H         0.2554924754       -9.3036489998       -8.9368200999
 H         0.5878046151       -8.7624030150       -7.3687154067
 H        -4.0077086465       -8.3225945004       -9.3549014527
 H        -3.8053588912       -6.5557329770       -9.4084308882
 H        -3.9521616088       -7.6189973702       -7.8991851554
 H        -0.4517290418       -8.1790029396      -10.1792211752
 H        -1.9185409670       -9.1378879829      -10.4173013809
 H        -1.9050002391       -7.5958795036      -11.0996365488
 Na        0.2935834731        1.0644631370        1.8959818966
