155

 C         2.4574397924        3.1697925051       -8.6548374776
 C         1.6469388303        3.4705796001       -7.3642318739
 C         1.2204149196        2.1698878177       -6.5201698496
 C         2.4133474451        2.0127508490       -5.4865650188
 C         2.0700248221        2.4269905956       -3.9169469422
 C        -0.1140471972        2.4643090816       -5.8715641044
 C         0.9867709226        0.8172075611       -7.3649244750
 O         1.1976471315        4.5627640063       -7.0676799413
 O         3.4670697686        1.4290457663       -5.8157437003
 C         3.0044284295        3.6892334286       -3.3774507442
 C         2.9346971752        3.8370379448       -1.8866274184
 C         3.7536545115        2.8242199332       -0.8535876333
 C         2.9885653972        1.6142983107       -0.2393186599
 C         2.3903669585        0.3432117174       -1.0510442673
 O         2.5195347066        4.8834519197       -1.4607947356
 O         2.7341397073        1.5917738335        0.9282972495
 C         4.9805419330        2.3712260289       -1.5586391459
 C         4.1192589755        3.7502670900        0.3378665424
 C         2.3214130601       -0.9427880391       -0.2114922042
 C         1.8015648786       -0.6934881753        1.2077885827
 C         2.4442651670       -1.5277025460        2.4182163699
 C         1.7811153839       -0.9804737811        3.8254418697
 C         1.6149996007       -1.9627638308        4.9235953398
 C         2.0456482749       -2.9321291480        2.1478761619
 C         4.0319058513       -1.4246633535        2.5053303172
 O         0.6776435953       -0.3064876847        1.3935766769
 O         1.4304394922        0.1350047269        3.9103993205
 C         1.8716505601       -1.1746831678        6.2084849887
 C         3.2875898446       -0.5461795979        6.4057006776
 C         3.5879987158        0.4149722526        7.4985947730
 C         2.5495224900        1.6626795793        7.5450964182
 C         2.4878586851        2.5933341671        6.3101181550
 O         4.1394279529       -0.7463785282        5.5394125040
 O         1.7134012242        1.7082594941        8.3800968721
 C         3.4546645556       -0.4158234447        8.8198244510
 C         4.9571268410        0.9518977688        7.4561570605
 C         1.0550756188        3.3621882030        6.5552351065
 C         0.5724048536        3.6170422574        5.0456024314
 C        -0.9914423848        3.8663148076        4.7390434520
 C        -1.5648410967        2.6630792611        3.9317851794
 C        -2.8556318015        1.9048539062        4.3996903117
 C        -1.8845126255        4.3202081589        5.9537532399
 C        -0.8782123767        5.1915768213        3.7291286622
 O         1.3907033207        3.5527836640        4.1445602454
 O        -0.9636758505        2.2887614058        2.9459266957
 C        -3.6621975794        1.3143752231        3.2137962113
 C        -3.9368597702        2.3951795454        2.1096865902
 C        -3.7359729428        2.1592070143        0.4999010047
 C        -4.2384687030        0.7102163303        0.2924571746
 C        -3.2638121108       -0.6245824449        0.0778586009
 O        -4.2925873785        3.5212229692        2.5130010523
 O        -5.3907579523        0.3551444993        0.2684987064
 C        -4.5347665346        3.1887005943       -0.2448416126
 C        -2.2303227637        2.5131950486        0.3335878945
 C        -3.8324196419       -1.6233198880       -0.9845343538
 C        -3.6004029911       -1.3469261435       -2.3784590365
 C        -4.3091333658       -2.0554037130       -3.5424274190
 C        -3.8541830738       -3.6034798170       -3.5671556390
 C        -4.1640831745       -4.3396409140       -4.8107206736
 C        -5.8584348815       -2.1158697542       -3.2673004276
 C        -3.9569852135       -1.2068683749       -4.8857909543
 O        -2.6119173459       -0.6047005784       -2.6016112787
 O        -3.3223933262       -4.0287529010       -2.5257598005
 C        -4.5928384049       -5.7429901686       -4.7143346041
 C        -4.4958843163       -6.4050925732       -6.0373245496
 C        -4.2752498667       -8.0704671051       -6.0764860279
 C        -3.1619779310       -8.5210611753       -5.0046012874
 C        -2.8870386966       -9.9496745833       -4.9185626436
 O        -4.5136945711       -5.9122363972       -7.1146477963
 O        -2.5526879575       -7.6759862029       -4.3340678559
 C        -5.5085730500       -9.0231593619       -6.1450878286
 C        -3.5895996877       -8.2085901861       -7.4628503125
 H         2.7991289773        4.0386169839       -9.0974634792
 H         3.3869081838        2.5501552392       -8.3276674648
 H         1.8190314505        2.5551157665       -9.2282457485
 H         1.0661355444        2.6537493826       -3.5648808277
 H         2.0773455224        1.5465785737       -3.2662781933
 H        -0.2929891882        3.4763600535       -5.5289490768
 H        -0.3678182317        1.7475645562       -5.1209979563
 H        -0.8336263880        2.5192931100       -6.7000659880
 H         1.4531478661        0.0134990869       -6.6846869698
 H        -0.0423553690        0.4805536098       -7.5458831240
 H         1.6932495609        0.8603192179       -8.2080800355
 H         4.0225534730        3.4159990489       -3.7476602605
 H         2.5997467796        4.5882368794       -3.8068419554
 H         1.4246507615        0.5919526604       -1.3981354647
 H         3.0851104191        0.2470429788       -1.9168644898
 H         5.6099775009        1.7980427693       -0.8571751245
 H         5.6221499829        3.2966136236       -1.8294738042
 H         4.6419917896        1.9025410550       -2.5062523115
 H         4.5607380123        3.1586356197        1.1931475577
 H         5.0373061691        4.3798106643        0.1919088830
 H         3.1435120214        4.1636602016        0.7679443959
 H         3.2853494393       -1.4327579148       -0.3630572144
 H         1.5387660687       -1.4992887593       -0.7029826619
 H         0.5617155978       -2.3464964660        4.9557576956
 H         2.2741949817       -2.8128847488        4.9475362502
 H         2.5889316045       -3.4747215889        2.7849546512
 H         2.4340641448       -3.2531571994        1.1902109564
 H         0.9747454750       -3.1165798655        2.0935629870
 H         4.5757138258       -2.2706485149        2.1559647566
 H         4.5231984934       -0.6317779835        1.9726608183
 H         4.1681009811       -1.2336826109        3.5640354664
 H         0.9467555001       -0.5011798294        6.2583244211
 H         1.6889062219       -1.8195709456        7.0350690169
 H         3.2597642996        3.3728737556        6.0891889238
 H         2.3384699390        2.0317915250        5.4168476206
 H         4.4345166335       -0.9081367704        8.8837696285
 H         2.7378599953       -1.1985107906        8.8104575187
 H         3.3590275780        0.1181504651        9.8217382123
 H         5.0412570064        1.4635173655        8.4186128073
 H         5.7191496685        0.1716856355        7.1950373748
 H         5.0776336544        1.6599945032        6.6432900506
 H         1.1977339677        4.2081029334        7.2578783529
 H         0.3533557532        2.7006088645        7.0652664864
 H        -2.7047091237        1.3159105802        5.2553626024
 H        -3.5687872818        2.5736633716        4.9900741413
 H        -2.2285525480        3.4424611642        6.3851213719
 H        -2.7422751522        4.9931786792        5.7347116868
 H        -1.2545524332        4.8964011515        6.4576014200
 H        -1.2239337563        6.1526299760        3.9353219354
 H         0.0736990918        5.2374678945        3.2808429606
 H        -1.5147399206        4.9303446870        2.7755478875
 H        -3.1694391792        0.4845148982        2.5966074691
 H        -4.6665310058        1.1099118939        3.5332748940
 H        -2.1767473841       -0.2870106297       -0.1621946411
 H        -3.3081911426       -1.1243315673        1.1233256547
 H        -5.5324868288        2.7724587891       -0.1677838001
 H        -4.1042383856        3.2909057272       -1.3390858120
 H        -4.4618722374        4.1768312953        0.3295529005
 H        -1.6839278180        1.9856642942        0.9796826814
 H        -1.6983588123        2.5873605659       -0.6072691084
 H        -2.1489122460        3.5039894016        0.7289083549
 H        -4.9022761117       -1.7811989981       -0.8255159171
 H        -3.4711844602       -2.6856878609       -0.7167299742
 H        -4.7869583496       -3.7607778080       -5.4438524306
 H        -3.2101905601       -4.2360416367       -5.3116025380
 H        -6.2150421414       -2.9503069774       -2.5732230824
 H        -6.3633353284       -2.2549505100       -4.2747997875
 H        -6.1065822076       -1.1183024717       -2.8492496443
 H        -2.8753959078       -1.0967352174       -4.8807201730
 H        -4.2793455482       -1.4126401406       -5.8583909339
 H        -4.1548143300       -0.1685555973       -4.7209255701
 H        -3.9375194951       -6.3501198880       -4.0216187225
 H        -5.5637877784       -5.5270551468       -4.2209305453
 H        -2.6006218585      -10.3370088770       -4.0034927381
 H        -3.5147921575      -10.6981402746       -5.4036519244
 H        -1.9821953526      -10.0493066550       -5.4688923559
 H        -6.0441186651       -9.1359835890       -5.2396854220
 H        -5.2642041601      -10.0855475793       -6.3429941996
 H        -6.2370857534       -8.6886666587       -6.8937331294
 H        -4.2104518289       -8.0888232071       -8.2755968659
 H        -2.7768440281       -7.5177819187       -7.6919698065
 H        -3.3629744308       -9.2080228660       -7.5459072705
 Na        1.0157383375        1.8167384316        2.3310699310
