155

 C         1.8891901328        3.1211271336       -9.0391343775
 C         1.2900094320        3.3513749714       -7.5773177878
 C         0.9725838104        2.1758197119       -6.4714572187
 C         2.3151301266        2.0341432507       -5.5189087197
 C         2.1820632222        2.2981213750       -3.8977154439
 C        -0.3333629038        2.7372584657       -5.7084348944
 C         0.8792638975        0.7289745651       -7.0886298660
 O         1.2322668924        4.4883967896       -7.1793255456
 O         3.3740436468        1.7409195005       -6.0202231780
 C         2.8472518236        3.5709627189       -3.5151937816
 C         2.9911780252        3.7293725992       -1.9891534944
 C         3.7105187724        2.8256161850       -0.9848669872
 C         2.8563930508        1.6257595696       -0.3940272403
 C         2.4162982421        0.3691889084       -1.2037028744
 O         2.2788213724        4.5711063972       -1.5190918279
 O         2.8269406286        1.5879682027        0.8338616636
 C         4.9676268838        1.9511054993       -1.5280597386
 C         4.1562477510        3.6501554624        0.2077795696
 C         2.4715403946       -0.8744045148       -0.2486445320
 C         1.7974634388       -0.7189243162        1.1150916587
 C         2.5185389092       -1.4030559944        2.3301369101
 C         1.8933867082       -1.0113838232        3.6877813787
 C         1.6244937103       -2.0392582961        4.8397638138
 C         2.2717145146       -3.0067920463        2.0656183421
 C         3.9668044732       -1.1109030610        2.3695574209
 O         0.6927112165       -0.1918985956        1.2013210896
 O         1.6541654053        0.2194551233        3.8961143515
 C         1.9011024886       -1.3425634974        6.2453933391
 C         3.2605068111       -0.8159736410        6.2674130615
 C         3.6180093528        0.2633149123        7.4302087601
 C         2.4903816589        1.3058020038        7.4374396057
 C         2.4672149698        2.3307544024        6.3183920653
 O         4.0751636263       -0.8428005496        5.3531355616
 O         1.6001250229        1.2944122083        8.3132854192
 C         3.4405386806       -0.4706073087        8.7891309863
 C         5.0676057671        0.7902540217        7.3009084155
 C         1.2856523885        3.2976186692        6.2130741830
 C         0.5699671103        3.3789776367        4.8658304983
 C        -0.9370347672        3.8730669703        4.6851103602
 C        -1.6909533437        2.6399573126        3.9347203657
 C        -3.0374756257        2.0787678435        4.4873420158
 C        -1.5978349911        4.2277740952        6.1079707752
 C        -0.9421850247        5.0964869442        3.7694119918
 O         1.2117518191        3.2206469341        3.8464189909
 O        -1.1334502226        2.0762363437        3.0116624339
 C        -3.7184808428        1.3856313008        3.3533957199
 C        -3.8392219327        2.6901275884        2.1797034801
 C        -3.5844442951        2.3467433503        0.5589557514
 C        -4.0402144035        0.8720336028        0.1884684497
 C        -3.0371419830       -0.1694864213        0.1737642926
 O        -4.0198402032        3.7605424321        2.6518141998
 O        -5.2050870551        0.6746785641       -0.1766071865
 C        -4.5171342105        3.3987886684       -0.1049148171
 C        -2.1374572771        2.6348376157        0.1244781857
 C        -3.6347429246       -1.2684278751       -0.7457171060
 C        -3.3218879598       -1.2272147480       -2.2748702486
 C        -4.2703166177       -2.0652577890       -3.3009279933
 C        -3.9100787044       -3.6124754787       -3.2757129936
 C        -4.1553741732       -4.3778428390       -4.6001069278
 C        -5.7917730071       -2.0462834418       -2.7654297183
 C        -4.2262628666       -1.4038545965       -4.6057472132
 O        -2.4604415884       -0.4181068194       -2.4994164150
 O        -3.5514723529       -4.1829895769       -2.3146636326
 C        -4.8695513682       -5.8193852155       -4.4395871282
 C        -4.5137887383       -6.4669491671       -5.8434757581
 C        -4.2117326131       -7.9487671751       -6.0461899281
 C        -3.1065175332       -8.4855799160       -5.0358865726
 C        -2.8569106486       -9.9187823533       -4.6653065751
 O        -4.7698257904       -5.7221466423       -6.7968332059
 O        -2.5706179682       -7.5233270401       -4.4491902519
 C        -5.5491620774       -8.6284945964       -5.9776896209
 C        -3.4163485856       -8.2684315007       -7.3763750121
 H         1.6109023337        4.1262266454       -9.5316563968
 H         2.9398943070        3.1439426672       -8.9673157803
 H         1.3853176643        2.1563783102       -9.4356382021
 H         1.2203984438        2.0769738319       -3.4348195681
 H         2.7253146317        1.6379965320       -3.2188798618
 H        -0.0093156117        3.6414791909       -5.1315004460
 H        -0.6961730983        1.9224909618       -5.0451449154
 H        -1.2180814989        3.0243985295       -6.2511839638
 H         0.4840509125        0.0549186981       -6.3804187325
 H         0.0792868304        0.8031833490       -7.8033732153
 H         1.8513539368        0.3622250008       -7.5159522789
 H         3.8066015938        3.3323904007       -3.9565585494
 H         2.4221793222        4.5203518642       -3.9555569985
 H         1.3213852771        0.7003495038       -1.3486634383
 H         2.9693407114        0.3740580546       -2.1010863691
 H         5.1580392391        1.2878216207       -0.7378279419
 H         5.8101287602        2.5343137347       -1.6517982503
 H         4.8195372680        1.5852579161       -2.5326189965
 H         4.9207323114        3.1960070386        0.7575747664
 H         4.7572584591        4.3958894202       -0.1587013423
 H         3.3654973617        3.9333301461        0.8141231627
 H         3.5570832272       -0.9241000047       -0.1322169815
 H         2.1716296267       -1.7850801856       -0.8306458007
 H         0.6671555858       -2.5146174620        4.8562797507
 H         2.3687282767       -2.8898899732        4.7389200942
 H         2.9209717972       -3.6969764948        2.7001758674
 H         2.3571827259       -3.2786618149        0.9992277258
 H         1.1980310017       -3.2224035237        2.0500837591
 H         4.5472471125       -2.1058508703        2.4765122023
 H         4.3247022494       -0.8791320341        1.3382449431
 H         4.4313199708       -0.3605507058        3.0563158862
 H         1.2028082035       -0.5490697905        6.2910977086
 H         1.6272421194       -1.9235415242        7.1828044120
 H         3.4227544802        2.7632877456        6.0465666673
 H         2.1696127997        1.6366767102        5.4865458101
 H         4.1852055631       -1.2023206499        9.0601619279
 H         2.4422373367       -0.9682509179        8.9643140387
 H         3.3782373841        0.2522879224        9.5454703079
 H         5.2034276981        1.8068197035        7.6053203431
 H         5.7269219699        0.0538733264        7.6846664414
 H         5.2367221604        0.7270064100        6.2257047061
 H         1.3595943790        4.2899221843        6.6859714037
 H         0.5219932944        2.7555162031        6.8364343650
 H        -2.7581343620        1.3392846025        5.3122339359
 H        -3.6095768641        2.6779378822        5.1495788010
 H        -1.5923740819        3.3282023884        6.6703180780
 H        -2.7122340248        4.4370630021        6.0086907477
 H        -1.1369181396        5.2245474379        6.3503515185
 H        -0.3500051853        5.8151737525        4.3642414487
 H        -0.3611347291        5.0069279595        2.7934772617
 H        -1.8497102039        5.5786639857        3.5246604584
 H        -3.0033236135        0.6891798216        2.9927285209
 H        -4.8087842731        1.1490378893        3.5464663734
 H        -2.1289227382        0.1523955002       -0.2099770633
 H        -2.9288593560       -0.4467045563        1.1822907066
 H        -5.5492387762        2.9221591529       -0.2257209163
 H        -4.0741554316        3.7958087887       -0.9609377422
 H        -4.5253135593        4.1871461235        0.5869806310
 H        -1.3849940475        2.0784703791        0.7030368467
 H        -1.9877070681        2.2402722159       -0.8820053344
 H        -1.7616490578        3.6940879369        0.0880473185
 H        -4.6860538326       -1.4440933337       -0.5467995427
 H        -3.2594014169       -2.1856120561       -0.4420581488
 H        -4.5770208931       -3.7826609700       -5.4686582829
 H        -3.1069565684       -4.6037459321       -4.9733154428
 H        -5.6660806983       -2.3168859493       -1.7608446651
 H        -6.4050802636       -2.8079991987       -3.1771739848
 H        -6.2700060080       -1.0864107586       -2.8893671673
 H        -3.3536904124       -1.6157314742       -5.2127201938
 H        -5.1555096056       -1.5210885046       -5.1899888182
 H        -4.1101120508       -0.3337694263       -4.5302298905
 H        -4.5058413021       -6.4182460751       -3.6126847628
 H        -5.9718004881       -5.6513064503       -4.3732829691
 H        -1.7976283302      -10.1664403387       -4.3932162297
 H        -3.2722875560       -9.9385275339       -3.5928536499
 H        -3.3434605693      -10.8565905271       -5.0995561545
 H        -6.1175322377       -8.4368704038       -5.0488199291
 H        -5.4151430957       -9.6754287701       -6.1171257104
 H        -6.2049319573       -8.3977240704       -6.8016917280
 H        -4.1281841620       -8.5976840098       -8.2519762333
 H        -3.0614081375       -7.3907862842       -7.8512672803
 H        -2.6429746947       -9.0861632862       -7.3632811990
 Na        1.2952179908        1.8445881935        2.4367493975
