155

 C         1.2855726271        2.8271896866       -9.0541318123
 C         1.1084405770        3.3478787942       -7.6049055634
 C         0.8159305572        2.2504572233       -6.4499626812
 C         2.3118560339        2.2067401790       -5.6960213980
 C         2.1501332577        2.1413997600       -4.1005540812
 C        -0.4158060218        2.7457979702       -5.6378986762
 C         0.5130565436        0.8034764021       -6.9897001457
 O         1.2440746479        4.4893364014       -7.2500675985
 O         3.3269408978        2.1268485805       -6.3310656863
 C         3.0575044396        3.3447517744       -3.4579802317
 C         2.8513950632        3.4485308600       -2.0710091135
 C         3.8546231668        2.6458555473       -1.1606184380
 C         3.0746108716        1.5636729523       -0.3260554591
 C         2.2371509754        0.4688267322       -1.1064622983
 O         1.9856646722        4.1651045420       -1.5462476508
 O         2.9187957518        1.7651991148        0.8574074874
 C         4.9973521599        2.0910154755       -1.9840899734
 C         4.4785055265        3.6813651970       -0.1589612254
 C         2.3731152454       -0.9227330068       -0.5286139477
 C         1.7197894895       -0.9164334533        0.8697686961
 C         2.5070521298       -1.5462077230        2.1561308406
 C         1.9017724383       -1.0500302972        3.6691549158
 C         1.7690744875       -2.1779973808        4.6911699705
 C         2.5307035167       -3.0185346300        1.9635364579
 C         4.0236251533       -0.9304631057        2.1977797749
 O         0.6632157747       -0.2805595131        1.0770532643
 O         1.7953346315        0.1414549408        3.8802388760
 C         1.8622704286       -1.7470059762        6.1714764870
 C         3.2978782912       -0.9128794293        6.2971276116
 C         3.5094135879        0.0700685185        7.4912616750
 C         2.3811093018        1.1340072871        7.4001669325
 C         2.5612475293        2.0956090050        6.2352537888
 O         4.0806676576       -1.0409260758        5.3771704703
 O         1.3926425327        1.1388026665        8.1005597820
 C         3.6765120220       -0.6817166263        8.8009301453
 C         4.9927926757        0.7794395208        7.2340531078
 C         1.3063708387        3.0918622338        6.3330356406
 C         0.7749292576        3.4700730411        4.8927645047
 C        -0.8438667948        3.7409185724        4.8198563298
 C        -1.5701409009        2.5671287845        4.0741774363
 C        -3.0154157992        2.2456377373        4.4035047158
 C        -1.4539304005        4.1165180916        6.2766430595
 C        -1.2258997249        4.8204340352        3.8304124695
 O         1.4582970961        3.4854993758        3.8855221499
 O        -0.8755361669        1.9426430561        3.2718088520
 C        -3.7319373072        1.6951347405        3.1387623916
 C        -3.8083326480        2.8801360228        2.1306017139
 C        -3.6197088924        2.5490488225        0.5091724545
 C        -4.0682061949        1.1087463808        0.1103014293
 C        -2.9859577307        0.0316121901        0.0472464903
 O        -3.7120972934        4.0662232330        2.4368638977
 O        -5.1742043656        0.9581295337       -0.3039772751
 C        -4.5052452563        3.7687667935       -0.0616567361
 C        -2.1582043552        2.9190189603        0.1937664313
 C        -3.1591365290       -1.3788201490       -0.5632740729
 C        -3.3112917813       -1.3252363667       -2.0443850634
 C        -4.3926691411       -2.1743597997       -2.8815979182
 C        -3.9999365704       -3.5730571978       -2.9238138738
 C        -4.0336503474       -4.2830512512       -4.3293911471
 C        -5.7967753593       -1.8877459848       -2.3258269983
 C        -4.2603104239       -1.4667000413       -4.3074112271
 O        -2.5506437641       -0.6119961390       -2.6840485519
 O        -3.7361873385       -4.1421471527       -1.8416067747
 C        -4.5751307469       -5.6552646619       -4.4374045032
 C        -4.6306509312       -6.2819394709       -5.8166685616
 C        -4.1964662814       -7.7846407196       -5.9077777067
 C        -3.0549666643       -8.1883209686       -4.8513871228
 C        -3.1008092777       -9.7169492518       -4.4150125620
 O        -4.9042135429       -5.7510472688       -6.8931182167
 O        -2.2902370146       -7.4954134737       -4.3149663272
 C        -5.4595956061       -8.7411143501       -5.7094246564
 C        -3.7146350711       -8.0621412445       -7.2417474894
 H         0.7884746136        3.4037350431       -9.7455388657
 H         2.3364867158        3.0766595302       -9.1941110442
 H         1.0294082457        1.8630645412       -9.0106258118
 H         1.1124129289        2.0191022613       -3.6857908912
 H         2.6407853824        1.3202163940       -3.6859132976
 H        -0.3151538747        3.7662278359       -5.3459258494
 H        -0.8232708995        2.0661037304       -4.8901097310
 H        -1.3125230244        2.6331027068       -6.3407114368
 H         0.1223062767        0.1918316147       -6.1702349841
 H        -0.2971704305        0.7511190723       -7.7654582601
 H         1.4032347771        0.4166233025       -7.2794374704
 H         4.1204244975        3.2005525288       -3.7748078619
 H         2.7893646241        4.2592303539       -4.0014405358
 H         1.2283242985        0.7197678231       -1.1615435761
 H         2.8010427088        0.5760527709       -2.0774245787
 H         5.6659179978        1.5186330752       -1.2764963490
 H         5.5409604474        2.9603142407       -2.5015648273
 H         4.7927256113        1.5314066426       -2.9134697419
 H         5.1317388632        3.2621201739        0.6271372207
 H         5.1600620847        4.4646909016       -0.6085123334
 H         3.6012578225        4.1277533786        0.3277459387
 H         3.3530393843       -1.3712853880       -0.5977627826
 H         1.7804827009       -1.4152937928       -1.2518984584
 H         0.7753021839       -2.7006471957        4.4735471435
 H         2.4505162337       -2.9822693772        4.5571341766
 H         3.1458359097       -3.4430953160        2.7673430443
 H         2.8919450679       -3.2747971563        0.9539775053
 H         1.5462706939       -3.5292726611        1.8320331926
 H         4.4676566855       -0.7376787563        3.1477911158
 H         4.7584986545       -1.3723398710        1.5144892304
 H         3.8389280121        0.0567138212        1.8008063084
 H         0.9928284272       -1.0421386819        6.3210085798
 H         1.6071134440       -2.5728476011        6.7625753739
 H         3.4783419793        2.6925203378        6.3527353848
 H         2.6534490502        1.5567478239        5.2730574491
 H         3.9154333812       -1.7279879487        8.5914732366
 H         2.8148356950       -0.7140330189        9.4103621252
 H         4.3611212070       -0.2069621054        9.5406164497
 H         4.8722101769        1.7302829810        7.7758761254
 H         5.6625865465        0.1269064060        7.8105353865
 H         5.3606427577        1.0426558415        6.2259921837
 H         1.5212046961        3.9664284589        6.9422291278
 H         0.5753877429        2.5617813394        6.9240802658
 H        -3.1979020065        1.6041974790        5.2411681842
 H        -3.4046239301        3.1710530822        4.8996787410
 H        -1.6421111069        3.1957791393        6.9402178014
 H        -2.3666781501        4.5329654217        6.1118136166
 H        -0.8348439890        4.9520145849        6.4887476235
 H        -0.4349044940        5.4987033010        3.2783976713
 H        -1.8308711358        4.4683647614        3.0021982755
 H        -1.9312894008        5.5506597660        4.2757052273
 H        -2.9300408554        1.1840314218        2.5630192856
 H        -4.6901026553        1.2973796967        3.3137844402
 H        -2.0407938586        0.4713127769       -0.4593258369
 H        -2.7359507065       -0.1914419380        1.1384079927
 H        -5.3819219061        3.7099056009        0.4846381397
 H        -4.5869511302        3.7100241277       -1.1378732797
 H        -3.8279414978        4.6533064304        0.0263210754
 H        -1.3460966920        2.3298037492        0.7306908519
 H        -1.7970788172        2.8917495540       -0.8341267394
 H        -2.0816621925        3.9267318689        0.4936098081
 H        -3.9205092827       -1.9953863267       -0.0887593705
 H        -2.2224513439       -2.0256543763       -0.3280863226
 H        -4.6394454232       -3.6140152764       -4.8840379717
 H        -3.1101756602       -4.3722620331       -4.8738040623
 H        -6.1487017377       -2.5513162663       -1.5395791722
 H        -6.5268166834       -1.9604546363       -3.1328391856
 H        -5.7985069310       -0.8201178364       -2.1735367694
 H        -3.2679876152       -1.5881248477       -4.7700319611
 H        -5.0686926713       -1.7296992221       -5.0041298313
 H        -4.3699695339       -0.3478245100       -4.2689961587
 H        -3.9571633036       -6.3029976875       -3.8295838093
 H        -5.6060614638       -5.9241269574       -4.1966855009
 H        -3.0568211232      -10.4288952470       -5.2565935891
 H        -2.3624433017      -10.1031631424       -3.8222289681
 H        -3.9991555024       -9.8732974704       -3.8786926328
 H        -5.9729158038       -8.5675446561       -4.7410502766
 H        -5.4092230119       -9.8063407569       -6.0665940220
 H        -6.2061661553       -8.4219572939       -6.4767602450
 H        -4.4195389806       -8.1363854592       -7.9889329507
 H        -3.0618430166       -7.2301452981       -7.6889475021
 H        -3.0912878445       -8.9572194457       -7.2179169601
 Na        1.0491466963        1.6142522203        2.2557465095
