155

 C        -0.0167046072        2.5948960457       -9.4356965048
 C         0.1998003971        3.3552492557       -8.0261977946
 C         0.4008009807        2.5011021401       -6.6893956362
 C         1.9150804329        2.4879320944       -6.3088485211
 C         2.2045269316        1.9633404029       -4.8465985685
 C        -0.3176695605        3.3098772141       -5.5899034383
 C         0.0943297507        0.9573919453       -6.8053279311
 O         0.3280189140        4.5466649024       -8.0395169710
 O         2.8341160859        2.5633919722       -7.1118346848
 C         2.8412511545        3.1440228279       -4.0500527732
 C         2.5960865176        3.0341490980       -2.5688752016
 C         3.7179710358        2.4785974100       -1.5920560875
 C         2.8774783518        1.6865975705       -0.3612899179
 C         2.1391835921        0.5651260589       -1.0115194022
 O         1.5058332710        3.2805992771       -2.0405207419
 O         3.1501059834        1.8314539409        0.8311473600
 C         4.6061771490        1.3889843385       -2.3000657597
 C         4.5989850783        3.5634196463       -1.0108808726
 C         2.5563549032       -0.8135030387       -0.5202746396
 C         1.9186679427       -1.0263196393        0.8722776878
 C         2.7635249040       -1.8160493924        1.9462273284
 C         2.1189416369       -1.6254779485        3.3828578524
 C         2.1427156803       -2.7687017292        4.3879426015
 C         3.0205174050       -3.2819051561        1.5280056719
 C         4.1882200346       -1.0137303418        2.0014936043
 O         0.8639632278       -0.5624690281        1.1118297497
 O         1.7214380359       -0.5473976491        3.7027284271
 C         2.3856467419       -2.2539376562        5.8084125411
 C         3.6198345888       -1.3007084889        5.9194852830
 C         3.6762227332       -0.4431995009        7.3349626134
 C         2.4314744498        0.6006945180        7.0756970518
 C         2.6520833284        2.0118519987        6.6103707339
 O         4.5906057449       -1.3323037404        5.2063103951
 O         1.3590314129        0.1966468296        7.3587971250
 C         3.3201873028       -1.1981125377        8.7037261798
 C         5.0574544144        0.1925823590        7.3510539847
 C         1.3805368932        2.9286276842        6.5985456662
 C         0.7014359407        3.0867105684        5.2323008727
 C        -0.7815952342        3.6507312989        5.0735800749
 C        -1.6057096364        2.5475875509        4.2070760828
 C        -3.1697843134        2.7920501865        4.1986525664
 C        -1.3209645483        4.0565682942        6.5033013485
 C        -0.7601630197        4.8299935731        4.1111756386
 O         1.2838964142        2.7652075617        4.2177798611
 O        -0.9978154992        1.7983333153        3.5006148194
 C        -3.5227126377        2.3856762199        2.6950594867
 C        -3.6216805230        3.5036359688        1.6950650777
 C        -3.3494094966        3.1330880161        0.1863539190
 C        -3.6421548232        1.6536062568        0.0622818453
 C        -2.4251289649        0.6279587795       -0.1740983929
 O        -3.5645323413        4.6881522274        2.0378385528
 O        -4.7701796332        1.2661652453        0.1207928064
 C        -4.2929402621        3.9991720348       -0.7878204777
 C        -1.9531794702        3.5978978861       -0.0942995764
 C        -2.7884377706       -0.8055562759       -0.3099793512
 C        -3.2972852121       -1.1460754713       -1.7374157897
 C        -4.7009589595       -1.7586039663       -2.1661475780
 C        -4.5942996365       -3.4453800099       -2.2409327678
 C        -4.0806064599       -3.9666941045       -3.5697761160
 C        -5.7439162429       -1.2673894748       -1.1791727354
 C        -4.9350534447       -1.0963329050       -3.6155885018
 O        -2.4349269295       -1.2585922367       -2.6398010767
 O        -4.5721105473       -4.0838316761       -1.2050400180
 C        -4.0280649835       -5.5038530965       -3.6128527388
 C        -4.3453978175       -5.9140010834       -5.0739654611
 C        -4.2295776747       -7.5698959099       -5.4265188574
 C        -2.9829765303       -8.0692935689       -4.5465280307
 C        -2.9010870591       -9.3181426202       -3.6991454511
 O        -4.7465494624       -5.1477466093       -5.8715514815
 O        -1.9163559175       -7.4296232352       -4.7124405183
 C        -5.5627410948       -8.0979756687       -4.6498494552
 C        -4.1693205980       -7.8961006514       -6.8958221380
 H         0.3062696770        3.3576595070      -10.1866973173
 H         0.4938571308        1.5559813139       -9.4170391301
 H        -1.0959590894        2.5709627912       -9.5205010090
 H         1.2639318014        1.8548244896       -4.4325629265
 H         2.9399861781        1.0778839788       -4.8772563524
 H        -0.1518176782        4.3945173977       -5.7505628480
 H         0.1153367527        3.1188995395       -4.6479845723
 H        -1.3354554391        3.1008213526       -5.7166750214
 H         1.0209391126        0.3133424629       -6.6523040624
 H        -0.7640812947        0.6910441227       -6.1870367342
 H        -0.3242538945        0.6937989069       -7.7688701534
 H         3.8784832559        3.3712244327       -4.4006248368
 H         2.3555096910        4.0743720776       -4.3696489922
 H         1.0633514644        0.7316891705       -0.7025082987
 H         2.2931453174        0.7942718011       -1.9951441302
 H         5.3230541136        0.8196307226       -1.6851206613
 H         5.3368683378        1.9289601649       -2.9699051878
 H         4.1380940558        0.5030266628       -2.8455849275
 H         5.4200705525        3.0708310198       -0.4129639730
 H         4.7960801427        4.3612452339       -1.7765708240
 H         4.0203531888        4.1960439338       -0.2557023290
 H         3.6229909084       -0.9601738672       -0.5834198042
 H         2.1749484245       -1.5900338686       -1.2168495273
 H         1.2083830598       -3.2693230980        4.3123548639
 H         2.8769367947       -3.5578164884        3.9897741932
 H         3.7247814031       -3.7889500736        2.0155931556
 H         3.4492925101       -3.1183079832        0.5831610003
 H         2.2159316819       -3.9682979563        1.5412110583
 H         4.4287071705       -0.7041713743        3.0021729010
 H         4.9445047991       -1.5178939165        1.5076187968
 H         4.2781326520       -0.1046471697        1.4590354458
 H         1.4155160183       -1.7896962727        6.0316988202
 H         2.4677809876       -3.0828687548        6.5722676377
 H         3.4894557727        2.4242634337        7.2224393700
 H         3.1221613723        2.0699849263        5.6753207638
 H         4.1082125185       -1.8169780518        9.0711170034
 H         2.4731100722       -1.8817761191        8.6724343158
 H         3.2087626992       -0.5147235828        9.5539932858
 H         5.0537471157        1.0390733234        8.0585022961
 H         5.8864756194       -0.5004278975        7.7200565025
 H         5.1859489300        0.4816945669        6.2907574129
 H         1.7086428527        3.9085058119        6.9332174521
 H         0.6343090828        2.6023846651        7.3223562423
 H        -3.6072768226        2.1623173257        4.9905477044
 H        -3.2607947449        3.8529685640        4.5486593767
 H        -1.2719609009        3.2730000094        7.2832073930
 H        -2.1739795511        4.5830778334        6.2906894593
 H        -0.5846151580        4.6985865995        6.8211767956
 H        -1.7346212290        5.0250244099        3.7889311608
 H        -0.2415775370        5.6479566461        4.3732573715
 H        -0.1232965940        4.4926137779        3.2695453566
 H        -2.8272115289        1.6153519756        2.2794422641
 H        -4.5641930103        2.0684837682        2.6180564027
 H        -2.0148750925        0.8593400309       -1.2052130994
 H        -1.4672475942        0.6840389641        0.4976592659
 H        -5.2728634718        3.5494505013       -0.6391370356
 H        -3.9370476998        3.8400563719       -1.9051675406
 H        -4.2028038798        5.0091863130       -0.2888580555
 H        -1.2308706247        3.2632459772        0.5159795395
 H        -1.6684662366        3.3950514144       -1.1505580621
 H        -1.9314134652        4.7108900314        0.0535364167
 H        -3.7394285790       -0.9063111149        0.3326524707
 H        -2.1098224791       -1.5968439235       -0.0511539782
 H        -4.7167142008       -3.4461987863       -4.2472486214
 H        -3.0895298208       -3.5467505660       -3.6451030702
 H        -5.5200410876       -1.6805046128       -0.1740529832
 H        -6.7221155608       -1.5648121559       -1.6154102577
 H        -5.6426191206       -0.1868070016       -1.0419229632
 H        -4.1078665238       -1.3616592370       -4.3549132596
 H        -5.8020896148       -1.4173340678       -4.1952892425
 H        -5.0093852715       -0.0110434905       -3.6215303133
 H        -3.1202767843       -5.9055439026       -3.1007305454
 H        -4.8475046171       -5.9977550051       -3.0412126306
 H        -2.8296865233       -9.1541684510       -2.6521814959
 H        -3.7964436515       -9.8750103204       -3.8042385597
 H        -2.1313360060       -9.9726376000       -3.9566392589
 H        -5.6528987196       -7.7249855570       -3.6370969568
 H        -5.5875493131       -9.2017146811       -4.6370951793
 H        -6.4685002580       -7.6766399119       -5.1993226838
 H        -4.1259821941       -6.9520544865       -7.3523832418
 H        -3.4443824172       -8.5962818927       -7.2999635135
 H        -5.0326634945       -8.2880876652       -7.3247498895
 Na        1.5663781776        1.3690509751        2.4641075230
