155

 C        -0.2481074409        2.5127192819       -9.4151524191
 C         0.0356380891        3.3309203609       -8.2252062665
 C         0.3446512918        2.5003807315       -6.7831184708
 C         1.8960777869        2.5061039651       -6.5394598404
 C         2.4182163611        1.9469538141       -5.0182638353
 C        -0.3793066905        3.4702301465       -5.7047006818
 C        -0.4729326832        1.1188533297       -6.6571523950
 O        -0.0816798005        4.5650548042       -8.2782634410
 O         2.7363647765        2.8239397569       -7.3413543814
 C         2.9271857365        3.2198771336       -4.3092046299
 C         2.5088580375        3.0817460963       -2.8523107820
 C         3.4773291137        2.4196455891       -1.8279314165
 C         2.7072018295        1.6357180524       -0.6898009958
 C         1.8073344577        0.3924927660       -1.1188666410
 O         1.4499457001        3.5091097931       -2.4532394363
 O         2.9138917148        1.7489827760        0.4994399262
 C         4.5040667866        1.3821127873       -2.5235832960
 C         4.3240422848        3.5256721752       -1.1075423618
 C         2.4003581201       -0.9567160043       -0.5497195413
 C         2.0618331908       -1.1035588726        0.9905246326
 C         3.0008689052       -1.8438832813        2.0004381626
 C         2.4268271260       -1.8080661278        3.4456070243
 C         2.4480871010       -3.0764597999        4.4396145889
 C         3.0439585695       -3.3248635362        1.3803633389
 C         4.3825101436       -1.2791618187        2.1330626351
 O         0.9190430392       -0.7158022934        1.3046355846
 O         1.9283596901       -0.7497446370        3.7919153906
 C         2.5036243382       -2.6070371875        5.9030189867
 C         3.5767347607       -1.5174180153        6.0551525404
 C         3.5442109302       -0.5622544654        7.3052898580
 C         2.3838786845        0.3919124354        7.0145319385
 C         2.6274105245        1.8742937335        6.7569631773
 O         4.3674464160       -1.2522664127        5.1549868090
 O         1.2205668423       -0.0493510666        7.0600270892
 C         3.3858796479       -1.2618432949        8.6377994056
 C         4.9267421052        0.3961302209        7.2729341743
 C         1.3224284594        2.7124544614        6.7466285274
 C         0.8403510063        2.9038735687        5.3106581311
 C        -0.5390306197        3.5700316158        5.1027702268
 C        -1.4039327794        2.6542357520        4.0541842880
 C        -3.0741874998        2.8917258822        4.0658674092
 C        -1.2738862410        3.8282522961        6.3866350620
 C        -0.1592396076        4.9579015829        4.3253593988
 O         1.5784193775        2.5926694537        4.3953457909
 O        -0.9428790053        1.9090614779        3.2126081316
 C        -3.6660731080        2.6346737961        2.7950531524
 C        -3.4454973578        3.7460522410        1.6811780783
 C        -3.2287672215        3.2669238958        0.0697789711
 C        -3.5022149491        1.7190688722       -0.0793547714
 C        -2.3874871880        0.8623746851       -0.5869637066
 O        -3.3359728213        4.8337948522        2.1206017696
 O        -4.6647462492        1.5431648415        0.4385221949
 C        -4.1569278189        3.9377413106       -0.9500607817
 C        -1.7476400128        3.6417943663       -0.1898611528
 C        -2.8405224707       -0.6255889324       -0.2847757556
 C        -3.1429080347       -1.2061437438       -1.7791126644
 C        -4.6118332316       -1.6528504585       -1.9866347156
 C        -4.6113835137       -3.2294214330       -1.9615474967
 C        -4.3450014897       -3.8116878768       -3.4254308604
 C        -5.7749231143       -1.4207014429       -0.8991344522
 C        -5.2881502597       -1.2062138047       -3.2660135730
 O        -2.2649001420       -1.3920197489       -2.5429655693
 O        -4.9044179703       -3.8254235703       -0.9758007214
 C        -3.7441548503       -5.2351389840       -3.4669055912
 C        -4.1931059335       -5.8899739034       -4.8463350386
 C        -4.3106712534       -7.4122111015       -5.0386030722
 C        -2.8550755475       -7.9252704040       -4.4155596585
 C        -2.8990983787       -9.1869291836       -3.6597206170
 O        -4.5418617979       -5.1626260502       -5.7478726575
 O        -1.8572333285       -7.4088129375       -4.8099182160
 C        -5.5934192561       -7.8296474242       -4.1741645576
 C        -4.3732776460       -7.7441824179       -6.5811839596
 H         0.4046792492        2.9823708527      -10.1286154609
 H        -0.0123882273        1.5557210081       -9.1343612663
 H        -1.2949283171        2.7551219289       -9.7420603570
 H         1.6648212395        1.4297431914       -4.3251294544
 H         3.3856550468        1.5780484172       -5.3268259718
 H        -0.1757309720        4.4835019343       -5.9691150686
 H         0.0980411101        3.3313266029       -4.7462583784
 H        -1.4370039127        3.3710685672       -5.8855244514
 H        -0.0133113040        0.3392271801       -7.2073718170
 H        -0.7275843210        0.8334711043       -5.6510434587
 H        -1.5510520529        1.2570058736       -7.0274926605
 H         3.9711680714        3.0514343788       -4.4360026952
 H         2.7435040762        4.2334962383       -4.6574400880
 H         0.7977864121        0.4418943721       -0.7152593580
 H         1.8035970083        0.4746232106       -2.2785026908
 H         5.1615327298        0.9007160902       -1.8261885492
 H         5.2278571127        1.8877428139       -3.0350089738
 H         4.1303007941        0.5369703600       -3.0105056208
 H         4.8734645164        2.9305523435       -0.4065465252
 H         4.8651925481        4.0156174197       -1.8632349151
 H         3.8550598439        4.3518921651       -0.6107543128
 H         3.5057043100       -1.0286031501       -0.7293352226
 H         2.0121755822       -1.7534046773       -1.1908585116
 H         1.5145034243       -3.6273052954        4.1104815399
 H         3.2469055013       -3.7623082053        4.2679037685
 H         3.9073948403       -3.9275017945        1.7750942992
 H         3.2194442919       -3.3931086503        0.2750150197
 H         2.2032329458       -3.9211442996        1.8165973634
 H         5.1420004341       -1.9844166793        2.5722151420
 H         4.6620904945       -0.9282394726        1.0929734850
 H         4.6332710442       -0.3467203218        2.6527184273
 H         1.5539116828       -2.2101564886        6.3186097024
 H         2.6889270299       -3.5171137768        6.4607300582
 H         3.1965358751        2.2444114081        7.5950623181
 H         3.3518347223        2.1512239482        5.9032723718
 H         3.8024492529       -2.2530676704        8.8373062430
 H         2.3243469635       -1.3951039001        8.8740525125
 H         3.8540814901       -0.7452788426        9.4405757512
 H         4.8283440193        0.9543518531        8.1885006059
 H         5.7435913225       -0.2690264231        7.4352622032
 H         5.1635395822        0.8951004277        6.3285211678
 H         1.6619061032        3.6384460268        7.2625201409
 H         0.5848757119        2.2363001806        7.4212114295
 H        -3.3553276058        2.0336695658        4.7512901656
 H        -3.2224013386        3.8129682769        4.5493121585
 H        -1.2453119533        2.8233428060        6.7808162161
 H        -2.3103663489        4.3561969157        6.0777359350
 H        -0.5925458753        4.4261701595        7.0871687326
 H        -0.7246433421        5.7659394607        4.8193708789
 H         0.9851760182        5.0509769480        4.6721929301
 H        -0.1920371856        5.0537018798        3.2003701627
 H        -3.2346038963        1.7097821796        2.4171958022
 H        -4.7699664429        2.5053968934        3.0080524718
 H        -2.1119711465        1.0307310096       -1.5887890070
 H        -1.5280363791        1.0928908038       -0.0765927912
 H        -5.2023104803        4.0602773482       -0.6668038262
 H        -4.0726385116        3.2758885567       -1.7081825847
 H        -3.6937148930        4.8270870977       -1.1109189733
 H        -0.9453792226        3.1196793396        0.4605485384
 H        -1.4492686467        3.4230741737       -1.1881899794
 H        -1.5788281888        4.6759175715        0.0426689992
 H        -3.6006351947       -0.6255290064        0.4186419756
 H        -2.0249813157       -1.2729884282        0.0492469322
 H        -5.3858597912       -3.6640773754       -3.8041499867
 H        -3.6232397329       -3.1112212288       -3.9247173718
 H        -5.3994692659       -1.8182965906        0.0257516157
 H        -6.6418018534       -1.9199317771       -1.2930881256
 H        -5.8877283310       -0.3479702520       -0.6673635431
 H        -4.9333214256       -1.3900546616       -4.2081801328
 H        -6.2601639166       -1.6759874478       -3.3541512368
 H        -5.4258686292       -0.1415831156       -3.2011416034
 H        -2.7044304158       -5.2650439272       -3.1794902430
 H        -4.2204204397       -5.8210060256       -2.6695924021
 H        -2.8876793236       -9.0217267924       -2.5575979431
 H        -3.7352668211       -9.9476471300       -3.8469848202
 H        -1.9123755045       -9.7758337344       -3.8157496248
 H        -5.3905955828       -8.1647913956       -3.1516824228
 H        -6.0176715596       -8.6873135628       -4.6016627418
 H        -6.2283647070       -7.0114141293       -4.2272410411
 H        -3.7936599546       -6.9581728379       -7.1962766067
 H        -3.8582438463       -8.6579440567       -6.7075651137
 H        -5.3286671778       -7.8161712354       -7.2083053946
 Na        1.3952487353        1.0880473703        2.5199926298
