155

 C        -0.2790180574        2.2884624431       -9.5442377313
 C        -0.6986845955        3.3447702358       -8.4207056745
 C        -0.0918843905        2.9657541827       -6.9584489560
 C         1.4229235741        2.6691357897       -6.8107514726
 C         1.9966654847        2.0080969140       -5.5224659771
 C        -0.3948681208        4.2638936263       -6.0423767345
 C        -0.9416094276        1.7920326786       -6.4012820161
 O        -1.3546631447        4.3795316491       -8.6005638058
 O         2.1873754187        2.8956703904       -7.7455157504
 C         2.8359423544        2.9949939962       -4.4824535727
 C         2.0172755535        2.7524923872       -3.0948330980
 C         2.9061052876        2.0749633091       -2.0010235363
 C         1.8660320769        1.2631127155       -1.0844703647
 C         1.3690713904       -0.1011569929       -1.5466666263
 O         0.9089139485        2.8506551332       -2.8541011381
 O         1.6424153150        1.7526018717        0.0096163486
 C         3.9394180295        1.0801228353       -2.5710354932
 C         3.5455315244        3.2219508190       -1.1600516286
 C         2.3498013004       -1.2171055887       -0.9505891359
 C         2.0312362251       -1.4532973121        0.4997384166
 C         2.9542351722       -2.1690097220        1.5776216110
 C         2.5177871109       -2.0297324711        3.1144272422
 C         2.9601046879       -3.0733779286        4.1031572430
 C         2.9234270748       -3.7559063371        1.0762990306
 C         4.3680903790       -1.7014942449        1.5925677167
 O         0.9190481483       -1.1206807168        0.9117894424
 O         1.9685857041       -0.9624026449        3.4106765842
 C         3.0519591237       -2.8100147164        5.5761798174
 C         4.0581269335       -1.7163362163        6.0864155366
 C         3.7016602198       -1.0022316788        7.4124356691
 C         2.5323337877       -0.0257860207        7.1412498543
 C         2.7334714908        1.5747290856        7.2172862589
 O         5.0661621687       -1.3826083127        5.4759590313
 O         1.4561176340       -0.4396347495        6.6793320093
 C         3.3884101845       -1.9876099458        8.5512258108
 C         5.0811424740       -0.3458220590        7.9286643150
 C         1.3867534313        2.2932217713        7.0155603279
 C         0.9344863978        2.4863413191        5.5190847606
 C        -0.0218661798        3.6544786492        5.2323890259
 C        -0.8967584297        3.1653119978        4.0333101052
 C        -2.3761823737        3.3401837478        3.8732100911
 C        -0.7713185539        4.2443381810        6.3875737830
 C         0.9132288314        4.8270593900        4.7492395757
 O         1.4948708558        1.6689367877        4.7417733278
 O        -0.4575519372        2.5520327537        3.0840030727
 C        -3.1310679280        3.2037017031        2.5101326353
 C        -2.7686856860        4.3115785484        1.4401419109
 C        -2.7045865583        3.8022833025       -0.1735941979
 C        -3.1110984095        2.2682798396       -0.0923579259
 C        -2.0951670352        1.0772439213       -0.5843009699
 O        -2.3745811383        5.3546233764        1.8525899590
 O        -4.2847317697        2.1164471043        0.0298580683
 C        -3.8093380492        4.6280925201       -1.0181489564
 C        -1.2675568148        4.1653861502       -0.5702173982
 C        -2.7099715467       -0.3037311365       -0.2002697679
 C        -3.4352079033       -1.0407008851       -1.4050995700
 C        -4.8395792826       -1.5556690787       -1.2183575493
 C        -4.9340317563       -3.1669926846       -1.7257861151
 C        -4.8079128699       -3.4896455053       -3.2284022230
 C        -5.3282786044       -1.2876714822        0.2374478611
 C        -5.7697530106       -0.6619937776       -2.2381705183
 O        -2.8498481607       -1.0926664353       -2.5600835043
 O        -5.0121367027       -3.9691158034       -0.8545974966
 C        -3.8919573330       -4.7189092375       -3.2730572476
 C        -4.0036606806       -5.7615427230       -4.3896915356
 C        -4.2333397130       -7.3264435444       -4.3192978700
 C        -2.7184442399       -7.8524443054       -4.2118299888
 C        -2.7961505314       -9.2400417398       -3.6008017600
 O        -4.0284905230       -5.3483823810       -5.5437565391
 O        -1.8228187632       -7.2089063885       -4.6006798543
 C        -5.3092288395       -7.6917031635       -2.9988478874
 C        -4.7846461588       -7.9395797155       -5.5410514051
 H        -0.7376828867        2.6278795566      -10.3991842471
 H         0.7564888451        2.3242550839       -9.5837000990
 H        -0.6035003233        1.3530672243       -9.1407687856
 H         1.1990354891        1.4604985813       -5.0392672113
 H         2.6966456536        1.3391094794       -5.8516389463
 H        -0.4344208474        5.1003928724       -6.6983895151
 H         0.2476579865        4.2791450215       -5.1645295320
 H        -1.4079252724        4.0439714413       -5.5455389070
 H        -1.6652945691        2.1611699714       -5.7294826366
 H        -1.4023910241        1.1105699084       -7.1417488287
 H        -0.5013422211        1.1814967750       -5.7018063422
 H         3.8318107584        2.5282795959       -4.5331849582
 H         2.6498529676        3.9947302107       -4.8833856042
 H         0.3446161356       -0.2980618898       -1.3184252118
 H         1.2772727282       -0.0879523234       -2.6238514395
 H         4.4790156532        0.6385692782       -1.7678972552
 H         4.7143225307        1.6683456065       -3.0864859399
 H         3.7997625233        0.3656335383       -3.2860771982
 H         4.2041857552        2.8066492507       -0.4954749266
 H         4.1830880889        3.7989390127       -1.7785679660
 H         2.7852523432        3.7570127408       -0.6952755787
 H         3.3422406760       -0.8519977288       -1.0757718763
 H         2.1650137576       -2.0793073004       -1.5955007912
 H         2.3016027597       -3.9076130200        3.9084459727
 H         3.9582120927       -3.1851825091        3.6513619022
 H         3.9073142855       -4.3695310781        1.3928213213
 H         2.8201954345       -3.7838964793       -0.0411690544
 H         1.9379206355       -4.2612682879        1.2296916829
 H         4.7957396806       -1.2110812755        0.7225183275
 H         4.6693271455       -0.9202296440        2.3439416635
 H         5.0120965163       -2.4919636917        2.0054152740
 H         2.0182033559       -2.4915744764        5.8571358763
 H         3.3158194948       -3.7301248080        6.0034584570
 H         3.3230882336        1.8634645689        8.1622850328
 H         3.3463121789        1.9518496258        6.4453951897
 H         4.1099790595       -2.8046147820        8.4949082007
 H         2.4525597219       -2.4019054551        8.6955767436
 H         3.4446645868       -1.5235157631        9.5738894487
 H         4.7828439514        0.0065687926        8.9295871036
 H         5.8224406710       -1.1578592711        8.0610283711
 H         5.4684155141        0.4409473662        7.2900298395
 H         1.4246680332        3.2308921821        7.5665220915
 H         0.6827232140        1.5954395913        7.4958324677
 H        -2.7738495498        2.6398281694        4.5082820894
 H        -2.5321825694        4.4098782653        4.2627204904
 H        -1.3516077222        3.4780860372        6.7085415605
 H        -1.4955026249        5.0348423634        6.2375658824
 H         0.0598332914        4.4729296585        7.1023117127
 H         0.7029786408        5.1520773410        3.7105480192
 H         0.5467246495        5.6788802876        5.4110828549
 H         1.9298612963        4.5094635214        4.7236089156
 H        -2.7771391761        2.2072318750        2.0221429110
 H        -4.1053558885        3.0389235118        2.8084737948
 H        -2.0195140864        1.1372637349       -1.6861585309
 H        -1.0218979286        1.0321458801       -0.3434125430
 H        -4.7091341893        4.4658760319       -0.3972268553
 H        -3.8516950887        4.2510935306       -1.9739062257
 H        -3.5607086940        5.6728525874       -1.1336120704
 H        -0.4321474635        3.8864812224        0.1709696445
 H        -0.9022062456        3.7440279456       -1.5314999880
 H        -1.2182452373        5.2196032720       -0.6920204392
 H        -3.2614431260       -0.1499311353        0.7439518859
 H        -1.9261669983       -1.0227109923        0.0475348198
 H        -5.8264674143       -3.7949501128       -3.4789030664
 H        -4.4126795016       -2.7189104322       -3.8852135916
 H        -4.6160774772       -1.5173107163        1.0207787296
 H        -6.1829565766       -1.9557281858        0.3566416018
 H        -5.6753760180       -0.2734036447        0.3289593828
 H        -5.7724648589       -1.1616022871       -3.2104267924
 H        -6.8025133679       -0.5719547811       -1.9285626828
 H        -5.4468001159        0.3578463024       -2.4837121856
 H        -2.8755701449       -4.2899658534       -3.2430935460
 H        -4.0625824464       -5.3996378615       -2.4534447187
 H        -3.2801452221       -9.3913838816       -2.5893535990
 H        -3.1751725836       -9.9891399271       -4.2622034937
 H        -1.8175491538       -9.6249450265       -3.3252656102
 H        -4.6601687055       -7.9219379644       -2.1917652797
 H        -5.9724484157       -8.5214668445       -3.3546896143
 H        -6.0180608309       -6.8767400243       -2.7265514762
 H        -4.2064686718       -7.4894542584       -6.3931702468
 H        -4.5415901315       -9.0340725875       -5.6442336058
 H        -5.8765061801       -7.7264678051       -5.7010581637
 Na        1.2976693221        1.1420223955        2.4648405401
