155

 C        -0.2137077863        2.4202218764       -9.5535758950
 C        -0.8002705941        3.3074122927       -8.4032844506
 C        -0.2060007386        3.1141108878       -6.9651066861
 C         1.2058774972        2.6570373304       -6.9349662179
 C         1.7692747979        1.8836692373       -5.5421373978
 C        -0.3515645863        4.4382413945       -6.1514383843
 C        -1.2779289351        2.0710984230       -6.4184703509
 O        -1.6494728183        4.0756093357       -8.5425120681
 O         1.9079068523        3.0323721233       -7.8201191071
 C         2.2991750546        2.9947894161       -4.6060142300
 C         1.8220279365        2.6129139499       -3.2046424922
 C         2.8067647788        2.0390328731       -1.9667028590
 C         1.8681210750        1.0540910366       -1.0545335804
 C         1.3917167545       -0.3164700974       -1.6355788345
 O         0.5499015852        2.4703908131       -2.9787055292
 O         1.5502008035        1.4718651469        0.0519176577
 C         3.9191388489        1.2636862103       -2.5573536246
 C         3.3712250427        3.1663416727       -1.1117271283
 C         2.0784627780       -1.4635825610       -0.9287381702
 C         1.8639182002       -1.4752861188        0.5821428467
 C         2.9650137095       -2.1773210136        1.3495814687
 C         2.6893173134       -1.9059239681        2.8508142176
 C         3.3789304424       -2.9180621579        3.8816252951
 C         2.7857547436       -3.6072295724        1.0487213631
 C         4.4845192207       -1.7267672332        0.9353125133
 O         0.7823597869       -1.1060494343        0.9838602995
 O         1.9791359720       -1.0523780519        3.3521890637
 C         2.8555991715       -2.5879533032        5.3317165172
 C         4.0460476164       -1.8348590428        6.0183083830
 C         3.7963597898       -1.1762855231        7.4307929134
 C         2.5905017940       -0.1487906744        7.1378279776
 C         2.8855430436        1.3652800890        7.2082194273
 O         5.1115606719       -1.6381620485        5.4749408212
 O         1.5566306369       -0.7037209290        6.9839651897
 C         3.2576129877       -2.2090636103        8.3885921819
 C         5.0694624581       -0.4031305697        7.9353405616
 C         1.5115024788        2.2751054485        7.0594941184
 C         1.0159449945        2.3600986548        5.6536808314
 C         0.2266965465        3.6725383084        5.1576344996
 C        -0.7079061212        3.2621178470        4.0003906132
 C        -2.0934050044        3.7204262434        3.8379126493
 C        -0.7848349203        4.1603882093        6.2067041371
 C         1.3397504059        4.7328327564        4.6433324784
 O         1.2819148847        1.4746451120        4.8582497936
 O        -0.2674495804        2.6327677261        3.0166929467
 C        -2.6215279235        3.3075961118        2.3969404191
 C        -2.3759905691        4.3460190939        1.3468999353
 C        -2.4836768740        3.8512181320       -0.1555399001
 C        -3.0770684673        2.3768068246       -0.1481194255
 C        -2.0462229994        1.3700945526       -0.4250009538
 O        -2.1191013893        5.5178058368        1.6605643236
 O        -4.2986603383        2.1045295071       -0.1518620259
 C        -3.4858710817        4.9369571423       -0.6072575683
 C        -1.0285033053        4.0423463452       -0.8925601578
 C        -2.4918711770       -0.1095818004       -0.3112562156
 C        -3.4603744513       -0.6904187024       -1.4145755226
 C        -4.8986710407       -1.4400992530       -1.0720476096
 C        -4.7486581481       -3.0665470085       -1.4525039315
 C        -4.6802744592       -3.4654266206       -3.0130057152
 C        -5.4590306160       -1.5951740106        0.4254303403
 C        -5.8143030713       -0.6474147365       -1.9344018025
 O        -3.0672423127       -0.8712244560       -2.4956375307
 O        -5.0861684978       -3.9011726477       -0.5669909727
 C        -3.8702292404       -4.8126336303       -3.1485323247
 C        -4.1215084749       -5.6148601173       -4.4747534480
 C        -4.3034729659       -7.2516704742       -4.0681031030
 C        -2.8708043041       -7.9045039177       -3.9859782177
 C        -2.4475967041       -9.3587817347       -3.5394703763
 O        -4.1252874734       -5.0837715438       -5.5417244751
 O        -1.8511461773       -7.1380773455       -4.1295949320
 C        -5.0107160124       -7.4571500664       -2.7325057670
 C        -5.0755660809       -7.8912058308       -5.3971981683
 H        -0.8605775044        2.3902769974      -10.4805524876
 H         0.7434643886        3.1035214358       -9.6938566348
 H         0.0730504407        1.5317277971       -8.9905012306
 H         0.8889466717        1.3450066253       -5.1585704293
 H         2.5746506333        1.0212334105       -5.6211271697
 H         0.3928533520        5.1182652820       -6.6405770357
 H        -0.3547120199        4.2382121525       -5.0848285871
 H        -1.3153755315        4.7455013752       -6.2945004648
 H        -1.8518404034        2.3609786475       -5.4942113972
 H        -1.8758340893        1.7874031012       -7.2460126385
 H        -0.9301162114        1.0929623489       -6.0352977407
 H         3.3315826086        2.7909082078       -4.6106350064
 H         1.9283021990        3.9001406148       -5.0597374990
 H         0.2473394237       -0.4263811144       -1.5668585988
 H         1.4911741742       -0.3124032033       -2.7153031028
 H         4.5450161467        0.8903142427       -1.7175045423
 H         4.5645511283        1.7034169905       -3.2919313958
 H         3.6578809354        0.3913386328       -3.2422127538
 H         3.8885150897        2.7797820737       -0.1937055989
 H         4.2842611998        3.5308806417       -1.6487152685
 H         2.5180390357        3.8250892289       -0.8365157559
 H         3.1183123958       -1.3336063900       -1.2557360863
 H         1.5848122943       -2.3511667427       -1.3388412070
 H         2.9738798659       -3.8686287766        3.5178021311
 H         4.4647006509       -2.8062789758        3.9191555541
 H         3.1907241425       -4.1586595102        1.8129785725
 H         3.1524931318       -3.9840336929        0.1589757506
 H         1.7816020611       -3.7655786541        0.9228681212
 H         4.7271104719       -1.8025442733       -0.0968598748
 H         4.6332497445       -0.6891395814        0.9825060494
 H         5.2345241198       -2.1081106905        1.5653097702
 H         1.9923487215       -1.9409339103        5.4421050218
 H         2.7358124909       -3.6123759567        5.8533662701
 H         3.4564645327        1.5293574291        8.0680506919
 H         3.5207887420        1.6398774056        6.2745212093
 H         3.6315059433       -3.2180204884        8.2637514125
 H         2.1396022622       -2.3431369499        8.2164706999
 H         3.1871041512       -1.9566381204        9.4023562273
 H         4.9014626901        0.1094496196        8.8829927836
 H         5.7688412105       -1.2109861137        8.1785420488
 H         5.3926515296        0.3397782581        7.1458066497
 H         1.4797802778        3.2196755282        7.6046781807
 H         0.8343056359        1.5700582818        7.5259297960
 H        -2.6443742332        3.1685226726        4.7604498929
 H        -2.0708765272        4.7722061280        3.8802741823
 H        -1.7881426044        3.5218592176        6.5344494124
 H        -1.2830902355        5.0272795844        5.7662848080
 H        -0.2112560516        4.3266500778        7.1468872804
 H         1.7273106630        4.5164788669        3.6320957035
 H         0.9410572226        5.6641954791        4.7046156361
 H         2.1187352740        4.5068871469        5.3210841787
 H        -2.4100063743        2.3005766023        2.0591847475
 H        -3.8050857146        3.3162640292        2.4371845678
 H        -1.8257249067        1.5819071679       -1.5131994854
 H        -1.0004126508        1.4397193126        0.0103081282
 H        -4.3125046065        4.9284996509        0.0953793773
 H        -3.8096162422        4.7858764498       -1.7304293551
 H        -2.8608919022        5.8720917702       -0.7037528328
 H        -0.2086062593        3.5345420700       -0.5826304012
 H        -1.1672196063        3.9400918008       -1.9826781199
 H        -0.7517803726        5.1414519481       -0.9294051897
 H        -3.0315687355       -0.0887287505        0.6547352966
 H        -1.6971256636       -0.8859919707       -0.1796526249
 H        -5.6488304200       -3.6670506257       -3.4593338372
 H        -4.1613961477       -2.6828573779       -3.5430395427
 H        -4.8529562978       -2.3653825944        0.8747090065
 H        -6.4567571891       -2.0136609170        0.4198419282
 H        -5.5765344654       -0.6766631142        0.9921227162
 H        -5.3982595890       -0.4747872280       -2.9674592647
 H        -6.8731328486       -1.0268765182       -1.9143271198
 H        -5.9521138081        0.3742069529       -1.5469225186
 H        -2.8125540541       -4.5794155595       -3.1676149134
 H        -4.1300224041       -5.5263423357       -2.3665861971
 H        -2.6260898871       -9.4649734935       -2.4698599480
 H        -3.0371805875      -10.1093933501       -3.9920645213
 H        -1.4966812070       -9.7161377733       -3.7166144597
 H        -4.3461434740       -7.0221468563       -1.9427044431
 H        -5.2095523140       -8.5137988917       -2.6044504448
 H        -6.0250582755       -7.0167784825       -2.8594550608
 H        -4.9550554248       -7.3877694198       -6.3278156145
 H        -4.7229127369       -8.9124230871       -5.5587903385
 H        -6.0975672266       -7.9358722791       -5.1867568597
 Na        1.2099127501        0.9215858511        2.3312289143
