155

 C        -1.4936920161        2.0278486327       -8.7625688046
 C        -2.3933052034        3.2193459782       -8.7554247580
 C        -2.1236230054        4.2606043103       -7.5145743926
 C        -1.0458277252        3.6842538595       -6.4575652044
 C        -1.3208330680        2.9324259223       -5.2066094710
 C        -1.5479577136        5.4726640637       -8.2841514683
 C        -3.5049921421        4.6764703666       -6.8792248211
 O        -3.4401795433        3.1882694648       -9.4387850895
 O         0.1454412370        3.8552879271       -6.6531392558
 C        -0.1512327487        2.3606748867       -4.5792492247
 C        -0.4397455077        1.2454211030       -3.5151734620
 C         0.9217062868        0.5977712839       -2.9126831210
 C         0.6296803903       -0.1895120168       -1.6475882045
 C         0.3316953231       -1.6476636207       -1.5931271762
 O        -1.4864023859        1.0348154302       -3.1494876220
 O         0.7506044856        0.4008625301       -0.5975836288
 C         1.7063705624       -0.3547799473       -3.9104037404
 C         1.8607380181        1.7460705685       -2.6311646351
 C         1.6002423031       -2.5569796648       -1.2328342511
 C         1.7791431423       -2.3883623657        0.3129060875
 C         3.0812459552       -2.9560948477        0.9934521366
 C         2.7654245628       -3.0094217192        2.6460028044
 C         2.9064465199       -4.3615713973        3.3971558157
 C         3.4604994067       -4.3801150314        0.6406733720
 C         4.2812936698       -1.9588259405        0.7127339681
 O         0.9962868024       -1.8151610766        1.0371397156
 O         2.5163741091       -1.9372690605        3.0962483194
 C         2.8842479910       -4.3559304735        4.9132221992
 C         4.0850348224       -3.7309724806        5.6148523749
 C         3.8439750775       -2.6747988961        6.8050410649
 C         3.2731432345       -1.3153690979        6.3644225995
 C         3.8548148865       -0.3475991479        5.3655316393
 O         5.2305151555       -3.9879866361        5.3343645088
 O         2.3054334224       -0.9077754649        6.9756483029
 C         2.8008502533       -3.3767037824        7.6910437705
 C         5.2065673272       -2.4634621820        7.5536893757
 C         2.9163353995        0.8610637529        5.1911376187
 C         2.8823539853        1.4908538617        3.8291372710
 C         2.6880055773        3.0283328829        3.5227698595
 C         1.5774995964        3.2456138432        2.4604730893
 C         1.3928187311        4.5196098932        1.6534616743
 C         2.1435827943        4.0615193412        4.5556916644
 C         4.1646253063        3.3711887758        3.0925171187
 O         3.1490218031        0.7572259409        2.9252929119
 O         0.8641380618        2.2295262022        2.1644962925
 C        -0.0250252238        5.1506401764        1.7577557029
 C        -0.6453944565        4.9604983092        0.4346123685
 C        -2.1405885792        5.3886614664        0.0804044417
 C        -2.8160873562        4.1168304880        0.7029234180
 C        -3.5842295586        3.1876834723       -0.2349580190
 O         0.0725677893        4.5030588755       -0.4318694207
 O        -2.5711599863        3.9060707916        1.8393767857
 C        -2.9002191416        6.6655915385        0.5688195786
 C        -2.0633794669        5.4168088153       -1.5517255447
 C        -4.1114334770        1.8961428451        0.5448227110
 C        -4.9309306887        1.0292443270       -0.4660220913
 C        -4.8373472398       -0.6270082172       -0.1320386238
 C        -3.7853327961       -1.3687405052       -1.1074517507
 C        -4.2118455453       -2.4870272242       -2.0561805179
 C        -4.4133046027       -0.9647892800        1.2774977008
 C        -6.3484860339       -1.1711020514       -0.3349778726
 O        -5.4403596294        1.3831432595       -1.5157455391
 O        -2.6300879570       -0.9607916082       -1.1512068701
 C        -3.1732704159       -3.6828373582       -2.2072313707
 C        -3.2340997910       -4.7575001725       -1.0289401781
 C        -3.9861338615       -6.1240993179       -1.3864982329
 C        -2.8993781823       -7.0932107879       -1.9881852898
 C        -2.6928385744       -7.2763165090       -3.4842481183
 O        -2.9758324461       -4.4163290227        0.1279121241
 O        -2.3021767962       -8.0242628937       -1.3409609405
 C        -4.3825602499       -6.6080851783        0.0855806826
 C        -5.1883008295       -5.8323376277       -2.2712397283
 H        -2.0956772778        1.3198698168       -9.3366708653
 H        -0.5031148677        1.9477674941       -9.4083091576
 H        -1.3370150976        1.4461530203       -7.8275805411
 H        -1.8730932287        3.6990958960       -4.5536172835
 H        -2.1125894133        2.1973619064       -5.3564910096
 H        -1.3403439040        6.4352047109       -7.7336174621
 H        -2.1315352301        5.8127150281       -9.1232351572
 H        -0.5752935510        5.1426482543       -8.6423999066
 H        -4.3374201573        4.3376448768       -7.5801759552
 H        -3.6288817883        4.1867967382       -5.9234497065
 H        -3.2954722043        5.7168603369       -6.7525491055
 H         0.4822253289        1.8300596792       -5.3382072933
 H         0.4231928753        3.1032742045       -4.0252144393
 H        -0.5441931663       -1.6988292441       -1.0123492191
 H        -0.1093816843       -1.9616973771       -2.6128623321
 H         2.5941978290       -0.7327783903       -3.4264559849
 H         2.1107561532        0.1596685754       -4.7254477907
 H         1.1193374959       -1.2344315857       -4.0932363454
 H         2.7827517382        1.4118381072       -2.2801383536
 H         2.0689365627        2.4108058468       -3.4522554534
 H         1.4243930155        2.3238206534       -1.8918047638
 H         2.5386559905       -2.2596007495       -1.7979533424
 H         1.5933751204       -3.6540150346       -1.3523545221
 H         2.1940694694       -5.0374616145        3.0176156187
 H         3.9035685733       -4.7774085888        3.1163287303
 H         3.9531732159       -4.8272221686        1.3649309953
 H         3.9495948130       -4.3598091593       -0.3154020661
 H         2.5612988933       -5.0162839289        0.6303938947
 H         4.7584585830       -2.0566345743       -0.3167431400
 H         3.9004284139       -0.9196789243        0.8920181554
 H         5.0695572635       -2.0868343015        1.5245285984
 H         1.9224072354       -3.9087611644        5.3322849502
 H         2.9816568205       -5.3658533591        5.1352718183
 H         4.8467169157       -0.0499137385        5.8391002335
 H         4.1814774663       -0.9186977951        4.4781776111
 H         3.1006762429       -4.3779765573        7.9175594563
 H         1.8543117986       -3.4480183225        7.1120884823
 H         2.8257084630       -2.9111100883        8.6289132970
 H         5.0636498169       -1.8743743129        8.4606246868
 H         5.6873920504       -3.3908755297        7.7443520618
 H         5.9691991304       -1.9156760027        7.0310605887
 H         3.2171026508        1.5393802724        5.9779678628
 H         1.9263536456        0.5019517748        5.4553442055
 H         1.8638027520        5.2595617903        2.1577867756
 H         1.8917653364        4.4398972994        0.6885447564
 H         1.2604356756        4.0150741944        5.0199943277
 H         2.2769344597        4.9998678523        4.1656899554
 H         2.7568203222        4.1869569358        5.4867475307
 H         4.4986668243        2.5809206932        2.5081778346
 H         4.3483509526        4.4326798790        2.7124077433
 H         4.6867317901        3.4868993209        4.0307504234
 H        -0.6016963032        4.6496694149        2.5303970380
 H         0.0781735682        6.1169895137        1.9947603317
 H        -4.3893277351        3.6711869846       -0.8718966920
 H        -2.9259443086        2.9143883800       -1.1411960880
 H        -3.2369204084        6.5980508257        1.5489964130
 H        -3.9335392507        6.6692034701        0.0752840114
 H        -2.4523861746        7.6798265142        0.3682596343
 H        -1.4767855519        4.6608873566       -1.8398178984
 H        -3.1199908405        5.2935465445       -1.9372815471
 H        -1.5419688819        6.3285344789       -1.8963230127
 H        -4.8965063199        2.1642862588        1.3561290622
 H        -3.3550997068        1.3940386737        1.1562064715
 H        -5.1889459713       -2.9073104920       -1.9904847685
 H        -4.2356198799       -2.0712468848       -3.0335415068
 H        -3.3445158451       -0.7074252804        1.4795000571
 H        -4.6287230448       -2.0217176980        1.5661785479
 H        -4.9702577704       -0.2971817492        2.0290898452
 H        -7.0479985944       -0.7890035800        0.3363200675
 H        -6.6006742433       -0.7915545340       -1.3143363129
 H        -6.4430281283       -2.2729715161       -0.3489117636
 H        -3.4893344608       -4.1697981542       -3.1648815771
 H        -2.1497270864       -3.3298352786       -2.3349176178
 H        -3.5343360755       -7.2790832801       -4.1462679136
 H        -2.0985590580       -6.4513140065       -3.7887735465
 H        -2.1641830045       -8.1830272373       -3.5830793209
 H        -3.5987722368       -7.2779790954        0.5073013373
 H        -5.1096326960       -7.3580106352       -0.1847406705
 H        -4.6370970000       -5.6655607351        0.6022475331
 H        -4.7551143395       -5.4342117661       -3.1351198522
 H        -5.7184760488       -6.8365061053       -2.5399540276
 H        -5.9113888251       -5.0742266052       -1.9045761697
 Na        1.5332390808        0.2867317593        1.6861367624
