155

 C        -1.4495593536        2.1089981062       -8.6435255774
 C        -2.5008807352        3.0998025765       -8.4564193903
 C        -2.2616034297        4.3326911742       -7.4734944468
 C        -1.1134765029        3.9431288417       -6.5225303814
 C        -1.5296860081        3.2953562496       -5.1196327049
 C        -1.6750949784        5.3352634384       -8.4804023521
 C        -3.6575272467        4.8481694889       -6.8421874238
 O        -3.4563552864        2.9940948388       -9.1327419770
 O         0.0224714549        3.8216699080       -6.9544327354
 C        -0.3159636832        2.1452653469       -4.8700427085
 C        -0.4691383366        1.2642436391       -3.5142154840
 C         0.8121014920        0.5081505471       -2.8341270132
 C         0.5047339564       -0.3572039137       -1.5999031303
 C         0.2578170323       -1.9134274088       -1.7050747442
 O        -1.6056616229        0.9085350724       -3.1154630068
 O         0.5375878539        0.1512615712       -0.4840999927
 C         1.5823712458       -0.2766440615       -3.9452026745
 C         1.6642569174        1.6572638093       -2.2882960770
 C         1.4353993147       -2.6946624856       -1.1893069159
 C         1.5828440126       -2.5753559925        0.3697418589
 C         2.9412764416       -3.0130056644        1.0543005850
 C         2.6336976095       -3.1192123160        2.5217123614
 C         3.0090120431       -4.3822733677        3.3224306039
 C         3.3414900910       -4.3297501688        0.2665629203
 C         4.0958971328       -2.0830393980        0.9725652311
 O         0.6781159024       -2.0599682855        0.9828770262
 O         2.2099600533       -2.1171522220        3.2015962466
 C         2.7445690939       -4.2400816697        4.9022473250
 C         4.0779391089       -3.8578948563        5.6156984195
 C         3.9491506333       -2.8605714050        6.7716781946
 C         3.2051251735       -1.3802798020        6.1777138741
 C         3.9371308377       -0.3896285383        5.2451574681
 O         5.0200144088       -4.5093252671        5.2159622078
 O         2.2079455344       -0.9603644740        6.7015292757
 C         2.9358708721       -3.3499956436        7.8417109642
 C         5.3601023800       -2.5958243011        7.3482068547
 C         3.1148165641        0.9204774972        4.9820574096
 C         3.3040608631        1.5349740079        3.5877615916
 C         2.9542915540        3.0766189273        3.3668660474
 C         1.7232681466        3.2958308025        2.1281356454
 C         1.7068136996        4.7288305526        1.6714453797
 C         2.4085055012        3.7614645351        4.6498581773
 C         4.2160988277        3.7724635424        2.8429729155
 O         3.7077448960        0.8639476785        2.5715198924
 O         1.0990366874        2.3589617196        1.7749809159
 C         0.2381596242        5.2788587553        1.5521709249
 C        -0.5930844772        5.0617353440        0.2785776629
 C        -2.0701417780        5.4449334058        0.1055781280
 C        -2.8008058511        4.1492588792        0.6369631547
 C        -3.9147452175        3.4395054556       -0.0535906737
 O         0.0742421212        4.5352009509       -0.5937406191
 O        -2.4345893361        3.6698957760        1.7349848242
 C        -2.4694682489        6.6893537115        1.0548986176
 C        -2.6126537324        5.7138247211       -1.3491771471
 C        -4.0729607281        2.0834146277        0.4614478936
 C        -4.8178157916        1.0558151430       -0.4742533794
 C        -4.7985492488       -0.4457723489       -0.1141447028
 C        -3.8255394700       -1.1729643336       -1.0183798486
 C        -4.3603680526       -2.4586769970       -1.7158520205
 C        -4.1111192389       -0.7501946875        1.2639085579
 C        -6.1806649919       -0.9474268870       -0.1281725026
 O        -5.6260805189        1.4029665233       -1.2835865622
 O        -2.6742386779       -0.8608845964       -1.1614207919
 C        -3.2951803430       -3.5188749181       -2.0498177218
 C        -3.1737645033       -4.6782690172       -0.9678312765
 C        -4.0339352679       -6.0217266516       -1.1019645967
 C        -2.9839118495       -7.0041305633       -1.7720432509
 C        -2.7372028494       -7.0359970944       -3.2930849894
 O        -2.3497373556       -4.4947530362       -0.0978464426
 O        -2.3740995824       -7.7889323221       -1.1229355599
 C        -4.2560508763       -6.7793476044        0.2961419092
 C        -5.4003841249       -5.7948238094       -1.7889280969
 H        -1.5511166891        1.3283900413       -9.3953769954
 H        -0.5690736327        2.5215549596       -9.0324042041
 H        -1.2712364520        1.5270239419       -7.7593660826
 H        -1.6852485775        3.9846463055       -4.3205116790
 H        -2.4883256271        2.7774840873       -5.2851330469
 H        -2.4899609745        5.8712132796       -8.8986934640
 H        -1.2264764899        4.9059446117       -9.4415699432
 H        -1.0040748032        6.1381511591       -8.0280626823
 H        -4.3338083733        4.6247906568       -7.5706042249
 H        -3.8825809524        4.2147335957       -5.9786749558
 H        -3.4546509276        5.9093288301       -6.5045392208
 H        -0.3770206812        1.2850938208       -5.5220015032
 H         0.7035629091        2.6254703097       -4.9527487143
 H        -0.5889982245       -2.0679465912       -0.9232815730
 H        -0.1831192173       -2.3824250434       -2.5165074155
 H         2.5834424043       -0.5666804741       -3.6039749403
 H         1.8156865618        0.4566778665       -4.7609386503
 H         1.0548797303       -1.2056368705       -4.0906250512
 H         2.4172442304        1.3156346012       -1.5119609309
 H         2.3153520170        2.2453983874       -2.9373882454
 H         0.8994106001        2.4143038637       -1.9720543650
 H         2.4081904532       -2.4212374049       -1.5638220673
 H         1.3201428595       -3.7505287571       -1.4714020326
 H         2.3739505546       -5.2592665178        2.9350493663
 H         4.0472392835       -4.6023106432        3.0833838045
 H         4.3632455911       -4.6774888577        0.7470092939
 H         3.2841796463       -4.1392626727       -0.8680756619
 H         2.7430337746       -5.1945048060        0.6647031133
 H         4.4117370731       -1.9748904730       -0.0489065409
 H         3.8961494892       -1.1360694506        1.4395423578
 H         4.8783359293       -2.4954469849        1.5869607873
 H         2.0427350300       -3.5004498796        5.0259125131
 H         2.3757006273       -5.3003219736        5.2617587449
 H         4.8102479140       -0.1808087150        5.8349796726
 H         4.4282230253       -0.8122971628        4.3405272152
 H         3.4662740813       -4.1812272605        8.3874008630
 H         2.0742380007       -3.7019061111        7.3560270229
 H         2.8686411495       -2.5436599044        8.6587557411
 H         5.2258046684       -2.1883343122        8.3221635667
 H         5.9137889981       -3.5394912499        7.4812876245
 H         6.0837471118       -1.9788327494        6.8637682241
 H         3.5428738440        1.6599701932        5.6947904566
 H         1.9869596242        0.7980590488        5.0967754824
 H         2.1930393630        5.6167204787        2.2222675693
 H         2.1778662347        4.7211432152        0.6397278560
 H         1.2257795441        3.9228967662        4.4485403083
 H         2.6554561630        4.7754569565        5.0387199250
 H         2.2604108201        3.2327351903        5.5581437704
 H         4.5167161358        3.2604886732        1.8409860292
 H         3.9508694126        4.8166355200        2.7355488742
 H         5.0378986076        3.9277953346        3.5963254613
 H        -0.3946921268        4.9767934243        2.4240059602
 H         0.4239701980        6.4342794194        1.6426219860
 H        -4.8708709752        3.8746323876        0.0695308138
 H        -3.8622697164        3.4993753300       -1.0935937991
 H        -2.4263796016        6.3460023708        2.1678416406
 H        -3.3793345702        7.2869601317        1.0401105121
 H        -1.6415782179        7.3931331450        0.9436435530
 H        -2.3737925355        4.8243101104       -2.0693170292
 H        -3.6286889368        5.9718131855       -1.2477364070
 H        -1.9883769274        6.5180423914       -1.6686163598
 H        -4.4283113911        2.0404016271        1.4488928725
 H        -3.0207157590        1.7055030294        0.5764816583
 H        -5.1783063798       -2.9358518866       -1.0888827525
 H        -4.9537106751       -2.2075326517       -2.6677718309
 H        -3.2805671578       -0.1296749635        1.3775643873
 H        -3.8696300551       -1.7774750621        1.3240800229
 H        -4.6605661559       -0.4416822003        2.0965435328
 H        -6.8006428192       -0.1005763292        0.3854349245
 H        -6.6649355791       -0.9090517013       -1.1217338095
 H        -6.3227669224       -1.8380936415        0.4706644583
 H        -3.2408577499       -3.9997640444       -3.0218487731
 H        -2.3617330291       -2.9715485884       -1.8370795644
 H        -3.4060887660       -7.8635585874       -3.5131918483
 H        -3.0042753329       -6.2410435748       -4.0045553094
 H        -1.7645321788       -7.5375652519       -3.4561820480
 H        -3.2819069796       -6.7613912704        0.6934573514
 H        -4.4172120369       -7.8390041056        0.1343711784
 H        -4.8751517413       -6.1364217706        0.8244330294
 H        -5.3129428835       -5.2032007451       -2.7367067075
 H        -5.9106617351       -6.6469621655       -1.9420270100
 H        -6.0452737300       -5.3167730172       -1.0799433581
 Na        1.8810537810       -0.0906321898        1.3632519171
