155

 C        -2.7584181493        2.2361186497       -9.3335813065
 C        -3.0916589865        2.5838009928       -7.8267051181
 C        -2.4783334338        3.8666642708       -7.1558070751
 C        -1.3838095771        3.5134974049       -6.0841534048
 C        -1.8977736335        2.6894671158       -4.9876484695
 C        -1.7896149453        4.7441945578       -8.1342786855
 C        -3.7612784065        4.6288053942       -6.6739534247
 O        -3.8582394147        1.8961873952       -7.2038362814
 O        -0.1904198489        3.7537438049       -6.2774163110
 C        -0.7196551663        1.7092883943       -4.7591613715
 C        -0.5402435707        1.1379904076       -3.3885332744
 C         0.9646332576        0.8190030962       -3.0015619297
 C         0.8264595703       -0.4033342674       -1.8541686665
 C        -0.1918231341       -1.4399676948       -2.1292340638
 O        -1.4498353946        0.9591755814       -2.5761238618
 O         1.5786952532       -0.1859821084       -0.8777566575
 C         1.8018070195        0.1741691268       -4.1060349952
 C         1.4244912444        2.1983855390       -2.3720701225
 C         0.2461370586       -2.8734851095       -1.5773186958
 C         0.4739473356       -2.8072359981       -0.0351212553
 C         1.8607361427       -3.5705284431        0.5655789172
 C         2.0143184607       -3.2188068797        2.0479834449
 C         1.6397421906       -4.3358607448        3.1007398543
 C         1.8356665070       -5.0870754390        0.0589959177
 C         3.0819748573       -2.8516608362       -0.1306549307
 O        -0.1068464395       -1.9215698443        0.6071962979
 O         2.1500257548       -2.1035768813        2.4369421275
 C         2.1506919313       -4.1202472509        4.5078430452
 C         3.6768514865       -3.8473319860        4.6235762478
 C         4.1350030894       -2.7498512523        5.7554087734
 C         3.7085933609       -1.1826570789        5.2227317478
 C         4.9099214033       -0.2418679754        4.8965132435
 O         4.4757919474       -4.4767463859        3.9910008053
 O         2.5888229721       -0.7582974192        5.2945209424
 C         3.1914484688       -3.0298574350        7.0052691975
 C         5.6129301782       -2.9793095325        6.0750792013
 C         4.4511653543        1.1884230179        4.4572776670
 C         3.9674720850        1.3237558683        2.9665287183
 C         3.6427593791        2.7526914911        2.4924961795
 C         2.5603609711        2.9230888688        1.3538078852
 C         2.3375780851        4.4766487429        0.8963339393
 C         3.3169936723        3.8163670064        3.7211715325
 C         5.0222067990        3.3045134240        1.8451607423
 O         3.7292208441        0.3316486569        2.3952446266
 O         1.8918386628        2.0003522095        0.9524628642
 C         1.0621484050        5.2276579063        1.3664600984
 C        -0.2068394262        5.5094127418        0.3070303704
 C        -1.7341072118        5.5925714737        0.9107334001
 C        -2.2108608157        4.0947671030        1.0190780916
 C        -2.3601246107        3.1849419884       -0.2335997161
 O         0.0941566063        5.5729925807       -0.8794213984
 O        -2.3866619936        3.5541405739        2.1346561942
 C        -1.5202835604        6.4017195112        2.2306875980
 C        -2.6007981129        6.5574261214       -0.1048597384
 C        -2.8088636207        1.7367902028        0.1736250234
 C        -4.3786917412        1.6593645622        0.5009325653
 C        -4.8645352530       -0.0713137527        0.7649974532
 C        -4.3249067741       -1.2204710055       -0.2480868896
 C        -5.2322902209       -2.4107024374       -0.3084617436
 C        -4.3769211042       -0.4966754455        2.2072834435
 C        -6.3657041960       -0.0603800565        0.7818088750
 O        -5.2273754991        2.4900323651        0.5866031929
 O        -3.2342588707       -1.2631904402       -0.7743247799
 C        -4.7791388730       -3.3462259261       -1.4384508469
 C        -3.6044911367       -4.2985946610       -1.1843625173
 C        -3.5787308205       -5.6809281022       -0.1382632359
 C        -3.1372617498       -6.8657189335       -1.0737560294
 C        -3.6204322380       -7.0415340554       -2.5077083888
 O        -2.5797687347       -4.2304763308       -1.8144358965
 O        -2.4372463583       -7.7683254743       -0.5656670097
 C        -2.4142393393       -5.4822392701        0.9828632841
 C        -4.8844087040       -5.9450438932        0.6659984737
 H        -3.5836471589        1.9786936719       -9.8790646644
 H        -2.2684546025        3.0812637309       -9.8500811552
 H        -2.2735568198        1.4103447157       -9.6893708736
 H        -1.9808807241        3.3194919988       -4.0960117671
 H        -2.8349445126        2.1658355268       -5.1415521761
 H        -2.3836253474        4.9757452343       -9.0226540195
 H        -0.7173116106        4.3099982653       -8.3228837670
 H        -1.6029301448        5.6763574311       -7.5423240630
 H        -4.1155644985        5.2617122986       -7.3748355077
 H        -4.4493737451        3.8367807215       -6.3299259727
 H        -3.4737986347        5.2834792449       -5.8164440456
 H        -1.0255984868        0.8737024221       -5.3764115145
 H         0.2293819234        2.0349639002       -5.1354972613
 H        -1.1449439139       -1.2704001062       -1.7150969926
 H        -0.3681192420       -1.5354247912       -3.2425069475
 H         2.7840911638       -0.0749592750       -3.7274650262
 H         1.9127436242        0.9468222148       -4.8344384233
 H         1.1166435100       -0.5575050749       -4.5664541826
 H         2.0162749730        2.2395456515       -1.4379779136
 H         1.9673540834        2.7046015000       -3.1429945256
 H         0.5129923719        2.7451254839       -2.0112943450
 H         1.1658495099       -3.2668352412       -1.9780699555
 H        -0.5911387247       -3.5708014089       -1.6375151508
 H         0.5688494532       -4.5122800311        3.1562793607
 H         2.1353277179       -5.3138939995        2.7434027762
 H         2.3788026667       -5.8181916371        0.5181917815
 H         2.1362317177       -5.0833702676       -0.9724896479
 H         0.7744594223       -5.4396629112        0.0012322073
 H         3.4476824972       -2.0427888292        0.5249172782
 H         3.9001633237       -3.5707222882       -0.1371047709
 H         2.7481462023       -2.5616903966       -1.1325108654
 H         1.5595754520       -3.3033484427        4.9417407869
 H         1.7803894911       -4.9783861641        5.0613590341
 H         5.4209569872       -0.2032327561        5.9086457100
 H         5.5405151302       -0.6811059453        4.1769673651
 H         2.9987544380       -4.1311210177        7.0522322503
 H         2.2300919976       -2.4974036342        6.9252348841
 H         3.6979737666       -2.5745400690        7.8869469784
 H         5.9386293138       -2.3438003232        6.8794649328
 H         5.6941834880       -3.9897548052        6.4284664827
 H         6.3025963284       -2.8455268113        5.2443983597
 H         5.3610561934        1.8550586928        4.6000063311
 H         3.6303935778        1.5498235370        5.1551473869
 H         3.1805918167        5.1455130224        1.3950175174
 H         2.3820351659        4.5000441399       -0.1498411918
 H         2.4321346764        4.4209295657        3.2510382498
 H         4.2163123636        4.3733455314        3.9092102059
 H         2.8876115595        3.3591784792        4.5867969015
 H         4.9593853901        3.3902734154        0.7289446442
 H         5.1646750119        4.3603734757        2.0273140508
 H         5.8639294781        2.7228776898        2.2075209394
 H         0.6050803596        4.7925750994        2.2322578876
 H         1.4207098772        6.3267409793        1.6908536782
 H        -3.0769739267        3.7089929852       -0.8115660912
 H        -1.4013480391        3.1222280436       -0.7138530208
 H        -1.0014412561        5.8451130465        3.0731104574
 H        -2.4446587263        6.4132361908        2.7222649496
 H        -1.0229200428        7.2980599798        1.9317800321
 H        -2.4559650655        6.1642455154       -1.1689966530
 H        -3.5511491760        6.6017302408        0.3278279296
 H        -2.0900844460        7.4914780866       -0.1335154941
 H        -2.5134810298        1.4508198037        1.1762763093
 H        -2.4697183220        1.0551312708       -0.5368374272
 H        -5.1024500847       -2.8518296873        0.7439960542
 H        -6.3302211968       -2.1927540677       -0.4641603518
 H        -3.3068110767       -0.6413591592        2.2873911210
 H        -4.8193273931       -1.4516524750        2.5023241711
 H        -4.7846574470        0.0958891839        2.9995664140
 H        -6.6454942962        0.7470237385        1.5450461143
 H        -7.0102566195       -0.2562710443       -0.0794882746
 H        -6.6343824567       -0.9586195034        1.3367097938
 H        -5.5301093727       -4.1408060635       -1.7245467517
 H        -4.5534389987       -2.7750821854       -2.3553145538
 H        -3.1230855219       -6.2259652036       -3.0120075220
 H        -3.2008204682       -7.9847296148       -2.8687576454
 H        -4.7197081455       -7.1256603684       -2.6969687732
 H        -1.8191870261       -4.7374323532        0.5737741371
 H        -1.9362417962       -6.4322642690        1.1962742423
 H        -2.8143991597       -5.3446467475        1.9564529964
 H        -5.8105519795       -6.0760833997        0.0153448566
 H        -4.7125001128       -6.7909724693        1.2470582330
 H        -5.3439210428       -5.1697247018        1.2670715663
 Na        1.9568676612       -0.0330713586        1.3492420062
