155

 C        -3.7260603898        2.2774350705       -9.4252942565
 C        -3.5717556786        2.6414230344       -7.9681691289
 C        -3.1267568183        4.1348725361       -7.3781867833
 C        -1.7625149301        3.6277307194       -6.5849834733
 C        -1.7571120729        2.8178079156       -5.1209297358
 C        -2.7648808352        5.1959939536       -8.4016000724
 C        -4.3383091976        4.3541089186       -6.4217921771
 O        -3.9834476089        1.7443274525       -7.2059383489
 O        -0.6781053113        3.8497777783       -7.0167255661
 C        -0.5645455234        1.7912539591       -5.3114247392
 C        -0.1351169858        1.2967552839       -3.9512935141
 C         1.2138652384        0.6558453903       -3.5262702361
 C         1.1530549353       -0.5113187016       -2.4755942349
 C        -0.2197729577       -1.3652050507       -2.1895845108
 O        -0.8414563741        1.6411576398       -2.9452874363
 O         2.1195575739       -0.7649725947       -1.7808590837
 C         2.0781893072        0.1824990072       -4.8451207717
 C         2.0525653456        1.8642460282       -3.0279914775
 C        -0.0054379866       -2.7855355414       -1.7773297646
 C         0.4996394242       -2.7766953758       -0.2253774807
 C         1.4061707452       -3.8627692259        0.5847035557
 C         1.5318040626       -3.4451414980        2.0102121674
 C         1.3987724924       -4.6092971449        3.0727483134
 C         0.8591117228       -5.2617326252        0.3958845967
 C         2.8292659666       -3.7365430048       -0.1192025351
 O         0.2227551259       -1.8025964458        0.4055279991
 O         1.7188909188       -2.2530794037        2.3043886541
 C         2.2730068283       -4.2495357256        4.4018373574
 C         3.6475357557       -3.5276721108        4.2295365601
 C         4.2113918574       -2.6565301487        5.4367749177
 C         4.0578274122       -1.1572333652        4.8847321526
 C         5.2469554509       -0.3084195662        4.4545171171
 O         4.2086002744       -3.4987662297        3.1595872836
 O         2.9842504629       -0.6973741583        4.8190025328
 C         3.5574399076       -2.8904768701        6.8188403263
 C         5.7574233950       -3.0169616925        5.3333968652
 C         4.9576056257        1.2090597268        4.2577694655
 C         4.4992961623        1.4092488466        2.8501666846
 C         4.1919629349        2.8055715994        2.2362270427
 C         2.6767408722        2.7969082072        1.9350712189
 C         2.2489081806        4.0512689181        1.1502652374
 C         4.2336664046        4.0015164918        3.2487435709
 C         5.1528725914        2.9524467303        0.9343110581
 O         4.3566465094        0.4742648790        2.1025064230
 O         1.8479184791        2.0071146524        2.2754272221
 C         0.9462522540        4.7263037990        1.8660528772
 C         0.0079025712        5.1007471340        0.5890708382
 C        -1.4587048370        5.2471242903        1.0968693674
 C        -1.6967725016        3.6952005008        1.3427283057
 C        -1.9366447314        2.6525580708        0.1497522051
 O         0.3928344567        4.8405196106       -0.5433123048
 O        -1.4617489353        3.2627897880        2.5050344524
 C        -1.6235107281        6.0288697364        2.4458311476
 C        -2.4599239407        5.8523845369        0.0457722351
 C        -2.5780745277        1.3145546911        0.5456693203
 C        -3.9721318300        1.4815584620        1.2133520712
 C        -4.7927299351        0.1613494999        1.5099287080
 C        -4.5165566871       -0.9942172976        0.5417031999
 C        -5.2976582372       -2.3098683247        0.7127473603
 C        -4.3360585844       -0.3808796522        2.8535530123
 C        -6.3496526590        0.4641127031        1.3664954557
 O        -4.4535070552        2.5643468423        1.2892870508
 O        -3.5415182818       -0.9606683185       -0.2220192490
 C        -5.5906241735       -3.0345400622       -0.5845442744
 C        -4.3331155844       -4.0828152692       -0.9675613953
 C        -3.8703041042       -5.0755355341        0.0642019110
 C        -3.3791532915       -6.5330683175       -0.4901758240
 C        -4.3765074832       -7.3942693244       -1.3288870419
 O        -3.7604024833       -3.9437558155       -1.9906159124
 O        -2.2738915804       -6.9462032209       -0.3239349679
 C        -2.5769959293       -4.2877979773        0.5634271794
 C        -5.0841173744       -5.3989273717        1.1243244490
 H        -2.9960096313        1.4470100185       -9.6426891789
 H        -4.7339780987        1.9645314907       -9.6861534787
 H        -3.5152292437        3.0354344834      -10.2280457678
 H        -1.6103859146        3.5051252928       -4.2641395403
 H        -2.6950192610        2.3052151707       -4.9731392214
 H        -2.1135950690        4.7805257108       -9.1877165842
 H        -2.5215761934        5.9897949883       -7.8290806241
 H        -3.6105081929        5.3976753774       -9.0654533999
 H        -5.2736636663        4.5397842889       -6.9896885146
 H        -4.5655843783        3.4781344856       -5.7746443040
 H        -4.1119429939        5.1290967220       -5.7861139703
 H        -0.8133636387        0.9572810898       -5.9120002460
 H         0.2681120639        2.3788348345       -5.6852406192
 H        -0.7063283126       -0.8899264968       -1.2837467851
 H        -0.9864752700       -1.4595426821       -2.9205379969
 H         3.0439645584       -0.1423591852       -4.4060882428
 H         2.1494099559        1.0972033286       -5.3960709056
 H         1.6539905712       -0.7023797456       -5.3166773189
 H         3.1373248295        1.5255423563       -2.9545718740
 H         2.0336089375        2.7846173781       -3.6786846567
 H         1.5598511233        2.3206844447       -2.0784940198
 H         0.7218703952       -3.4039703932       -2.3386540074
 H        -0.8714082706       -3.3943909197       -1.8435640358
 H         0.2844834620       -4.6452223161        3.2657358513
 H         1.6765144774       -5.5731316846        2.7331257928
 H         1.5689896947       -5.9705090142        0.7204479049
 H         0.5530752129       -5.5808077789       -0.5649855628
 H        -0.0413036456       -5.3808152988        0.9844681543
 H         2.9878651125       -2.6935927253       -0.2988130249
 H         3.5242589286       -4.2629628711        0.5004378355
 H         2.8715487748       -4.2038959334       -1.0890422351
 H         1.6948166539       -3.4957236948        5.0979729732
 H         2.3122768771       -5.0181442821        5.1278048968
 H         5.9422183120       -0.4002802918        5.2309316382
 H         5.5752907391       -0.7563896001        3.4564912920
 H         3.4415010438       -3.8790126554        7.1907470034
 H         2.5916881828       -2.2939678351        6.7332371402
 H         4.2628728795       -2.5121812727        7.5166511364
 H         6.4784471450       -2.4840844346        5.9406757903
 H         5.7570389925       -4.0527357302        5.5619314001
 H         6.0058989871       -3.0275493467        4.2895729236
 H         5.8122814542        1.8804664779        4.5042648133
 H         4.1875352681        1.4981295297        5.0030764475
 H         3.0788957721        4.7570985759        0.9556771963
 H         2.1021866457        3.8143331160        0.1163737029
 H         4.4967712667        4.8344795541        2.5475744316
 H         4.9042919188        3.9384264201        4.0530414068
 H         3.2602282536        3.9698920192        3.4330598405
 H         4.9025908181        2.2191680159        0.1987589517
 H         5.1528031346        3.9016941230        0.6904560646
 H         6.2245062142        2.8194373450        1.1681889181
 H         0.5160116313        4.1007749974        2.5620916216
 H         1.0446217930        5.6538470444        2.4150774447
 H        -2.4700237965        3.2333708131       -0.5999906375
 H        -0.8356859008        2.5353918453       -0.0520066843
 H        -1.3600772114        5.1875232013        3.1999815411
 H        -2.6415990986        6.3289847268        2.5942904081
 H        -0.9920081281        6.8755906669        2.4658906589
 H        -2.1251068064        5.3401239317       -0.8485241548
 H        -3.4216674430        5.4020705839        0.2858323798
 H        -2.4470330862        6.9583502956        0.0385148030
 H        -1.8596428884        0.7516266613        1.1749853172
 H        -2.8559911499        0.8172655402       -0.3514300309
 H        -4.7957916682       -2.9794549517        1.4117906260
 H        -6.2560837784       -2.1818222021        1.2177031361
 H        -3.2882601116       -0.6023963127        2.8582170397
 H        -4.9076485077       -1.1552241330        3.3365806855
 H        -4.3861947416        0.4919559417        3.5107656019
 H        -6.6060613394        1.5373203492        1.2775195823
 H        -6.8382458789        0.0793112709        0.3960192547
 H        -6.8409643257       -0.0127141381        2.2809978061
 H        -6.4357056702       -3.7288116733       -0.4093375536
 H        -5.8741987328       -2.4202233954       -1.4794176174
 H        -4.9903693430       -6.7778757820       -2.0742150789
 H        -3.7917355745       -8.2099921773       -1.7868898366
 H        -4.9979836053       -7.8123454185       -0.4814498995
 H        -1.6235069456       -4.3798542179        0.0219699584
 H        -2.4457530598       -4.5843343071        1.5567895738
 H        -2.9431860107       -3.2653119675        0.4230132839
 H        -5.9810228797       -5.7005087564        0.5685243152
 H        -5.0269048324       -6.3009326358        1.7791545075
 H        -5.1626185326       -4.6712139826        1.9656628235
 Na        1.9701450576       -0.2858872593        0.9406983854
