155

 C        -4.0318211463        2.3956804849       -9.4877090932
 C        -4.5719818918        2.3257930664       -8.0377569780
 C        -3.9078891921        3.4419351032       -7.0877075742
 C        -2.5101221065        3.1709162426       -6.7977435972
 C        -2.0550990327        2.4252935415       -5.4655419281
 C        -4.0993953402        4.7260602064       -7.8825201592
 C        -5.0036962117        3.4329886327       -5.9927367588
 O        -5.2774856472        1.4775891941       -7.6044571772
 O        -1.6385518835        3.4088088680       -7.5988369775
 C        -0.7389836077        1.7363137520       -5.9578274085
 C         0.2615251139        1.6936174459       -4.9383222506
 C         1.5085518033        0.7386542315       -5.0013855333
 C         1.5451330651        0.0770887644       -3.5428570653
 C         0.2035766280       -0.5567175043       -3.1148676570
 O         0.2133872287        2.4293383685       -3.9332813002
 O         2.5492845391        0.0813964337       -2.8308264710
 C         1.3226645157       -0.3632566166       -6.1151999307
 C         2.7738540166        1.5912298137       -5.0242918388
 C         0.3036188267       -1.9242799040       -2.3984407021
 C         0.8001795738       -1.7206631210       -0.8429454893
 C         1.4073053686       -2.9380916140       -0.1166338702
 C         1.8137661087       -2.4571715719        1.3051339560
 C         1.7065786595       -3.2702064409        2.5660210456
 C         0.3037841632       -4.0383616624       -0.1434803962
 C         2.6066038565       -3.2958958702       -1.0368575004
 O         0.5067692854       -0.6725054170       -0.3538744667
 O         2.2999088693       -1.3255016618        1.4139431108
 C         2.6460412928       -2.9611406549        3.7273225359
 C         4.0974562461       -3.4308371282        3.4235960303
 C         5.3477262291       -3.1355191904        4.5103161370
 C         6.0259349494       -1.7600014465        4.0525705508
 C         6.2109358494       -1.5552864276        2.4789698271
 O         4.2178442298       -4.0243506188        2.3575715663
 O         6.2250645941       -0.8082184104        4.8296367575
 C         4.7107738945       -2.9962629209        5.9602564816
 C         6.2104645758       -4.3876192448        4.6897586010
 C         6.4853316339       -0.1130825542        2.1321631064
 C         5.1768079839        0.6300786890        1.8862369973
 C         5.2211637978        1.9306912440        0.9898943544
 C         3.8223958087        2.6326179647        1.0102210006
 C         3.5028318755        3.7358620823        1.9852912768
 C         6.3862278121        2.7392086861        1.4996555950
 C         5.5300930697        1.4859847843       -0.4517456446
 O         4.0575478673        0.2766737784        2.2407661270
 O         2.9489516314        2.2509173917        0.2817755398
 C         2.1807981298        3.7267082841        2.7717335191
 C         0.9943680158        4.0579599116        1.6538782376
 C        -0.4624395883        4.0305022531        2.1263370001
 C        -1.0583057377        2.6530657119        2.4223132928
 C        -1.2698010747        1.5244472099        1.4880417370
 O         1.2961440622        4.6511656313        0.6531736295
 O        -1.2746931975        2.5273972833        3.6669592213
 C        -0.9696851017        5.1386607470        3.2749488070
 C        -1.1562433341        4.3861824116        0.6532626832
 C        -2.3928142430        0.4983907154        2.0039760616
 C        -3.8224223173        0.8948238458        1.5484943752
 C        -5.1611650835        0.3080888639        2.4286536328
 C        -6.0085709712       -0.9825934617        1.9896913657
 C        -6.6561711800       -1.6745707809        3.0848568891
 C        -4.5736833679        0.1363203967        3.9196981758
 C        -6.2399679604        1.3663890614        2.4031061592
 O        -4.0125923022        1.7005059002        0.6411778840
 O        -6.0016873673       -1.4117553393        0.8392460335
 C        -7.7176427093       -2.6526334057        2.6150114777
 C        -7.3100432717       -3.5977234682        1.5321655086
 C        -6.0411977006       -4.5474130374        1.9313378659
 C        -4.7659903203       -3.9160317067        1.1705125117
 C        -4.6474013551       -3.8680137814       -0.4041746894
 O        -7.9849089337       -3.8934426054        0.5674776606
 O        -3.7148279000       -3.7438838790        1.7599900287
 C        -5.7708750272       -4.9562940515        3.3855904815
 C        -6.2005980592       -6.0078644259        1.2911843784
 H        -3.3475597880        3.2871732186       -9.6517527634
 H        -3.3959668923        1.5431573208       -9.6620805328
 H        -4.8336674737        2.3072089245      -10.1953071002
 H        -1.8745065262        3.3387150323       -4.8662317461
 H        -2.8170623056        1.7953663823       -4.9491935646
 H        -3.2459138557        4.7228002245       -8.5065326543
 H        -3.8082567537        5.6125319892       -7.3159295826
 H        -5.1425188286        4.6424762742       -8.2951463311
 H        -5.8733675769        2.9919355021       -6.1972259178
 H        -4.7569615532        2.9563614441       -5.0143979417
 H        -5.1623945755        4.4647014072       -5.6787747786
 H        -1.0126887668        0.8446812926       -6.4983515522
 H        -0.3015686646        2.3317520742       -6.7886350750
 H        -0.2984722459        0.2066477130       -2.4630537168
 H        -0.3951925763       -0.7567190746       -3.9820026414
 H         1.9676475222       -1.2550269360       -6.1118384495
 H         1.3056568332        0.0578257584       -7.0925187251
 H         0.3310605681       -0.8162315294       -6.0019286431
 H         2.7816872736        2.0162814920       -6.0208894163
 H         2.7237360060        2.3757369396       -4.3132954750
 H         3.6160650818        0.9291328828       -4.9381052352
 H         1.0029467152       -2.5240737958       -2.8817483692
 H        -0.7161487782       -2.2992784746       -2.3177819799
 H         0.6416814393       -3.1780794913        3.0225340712
 H         1.7814841602       -4.2532108366        2.2668693547
 H         0.6618012528       -4.8881015038        0.4639514923
 H         0.1329292012       -4.3635089088       -1.0658015794
 H        -0.5616265781       -3.6435358216        0.2046472093
 H         3.2512221300       -2.4860686285       -1.2760567117
 H         3.0500294777       -4.2027979693       -0.7190593668
 H         2.3071864304       -3.5376824647       -2.0293354773
 H         2.6945263488       -1.8479028195        3.9148712931
 H         2.3214319816       -3.5677759769        4.5907377928
 H         7.0137192873       -2.1925665876        2.1147305317
 H         5.3035176505       -1.8966371292        1.9993748462
 H         4.2384532208       -3.8955470048        6.2390017291
 H         4.0496922453       -2.1022948712        5.9542557048
 H         5.4093013579       -2.8090112483        6.7379620748
 H         6.9227264536       -4.4746914553        5.5359636333
 H         5.4984534926       -5.1984917554        4.7879972232
 H         6.7136909288       -4.6587663091        3.7550269120
 H         7.1205695913        0.0779735641        1.2559998921
 H         6.9439489697        0.3611078193        3.0285269464
 H         4.3629313855        3.6365402671        2.6901261950
 H         3.4776775447        4.6149361358        1.4103287418
 H         6.2966107840        3.8459116834        1.3241361495
 H         7.3759868298        2.4698492055        1.2087064580
 H         6.3991981049        2.7160756951        2.6227731444
 H         5.4214336289        0.4639864192       -0.5274194726
 H         4.8297586523        2.1374596314       -1.0284268213
 H         6.4307551467        1.7623057183       -0.8390709771
 H         2.0989697633        2.7377043977        3.1952285619
 H         2.2486461345        4.4217012238        3.7319217181
 H        -1.6536075552        1.8897671254        0.4903431919
 H        -0.3360652113        1.0142560166        1.3501310668
 H        -1.2134943798        4.6370858393        4.2459918114
 H        -2.0104530288        5.3935040128        3.0973098446
 H        -0.4999738367        6.1136649494        3.1840480889
 H        -0.8397297869        3.6692193944       -0.1782377870
 H        -2.1974472529        4.1948320601        0.7334760618
 H        -1.0504277204        5.4278286360        0.3757352102
 H        -2.1698216969        0.4537662175        3.0645529952
 H        -2.1922042112       -0.5109924506        1.7004941597
 H        -5.7414787704       -2.2006063712        3.4767144174
 H        -7.0742464777       -0.9564751721        3.8631463283
 H        -3.8343801056       -0.6076380424        3.9703908963
 H        -5.4136918655       -0.2029385328        4.4595197118
 H        -4.3612484670        1.0991371602        4.3226700635
 H        -5.9815002184        2.3181502887        2.8114073003
 H        -6.3905449184        1.5833701921        1.3864016158
 H        -7.0886698030        0.9389461615        2.8065599729
 H        -7.8932524876       -3.3649324930        3.4639770689
 H        -8.7410146316       -2.3046902849        2.3634165242
 H        -5.6610555279       -4.0759198974       -0.7608569324
 H        -4.3243499081       -2.9159217296       -0.7499475981
 H        -3.9796715082       -4.6850370468       -0.7140706433
 H        -5.4237091346       -4.1268309783        4.0516474633
 H        -4.9543896942       -5.6024224919        3.2429071163
 H        -6.6717649585       -5.2460687191        3.9543221082
 H        -6.3314189505       -6.0151108292        0.1911501839
 H        -5.2405402400       -6.4113035930        1.3257931791
 H        -6.8541846370       -6.4889210320        1.9184554778
 Na        2.7879030694        0.3091322507       -0.1859125424
