155

 C        -3.8821308860        2.0393509367       -9.5417200879
 C        -4.6398885556        2.2847532346       -8.1691034753
 C        -4.0778425074        3.5877526797       -7.0599400601
 C        -2.6098480213        3.1663041916       -6.9898310844
 C        -2.1278687048        2.2965247473       -5.7845648462
 C        -4.2678209197        5.0220721271       -7.7394622637
 C        -4.8497571403        3.5755129400       -5.7218128439
 O        -5.2677702577        1.3750322824       -7.6584349773
 O        -1.8934943328        3.5954940452       -7.8908371570
 C        -0.9173273387        1.3775773769       -5.8633575487
 C         0.2223535872        1.7077435753       -4.8326035409
 C         1.5444760780        0.7576204830       -4.9320094231
 C         1.4070652680        0.1070458818       -3.5258523608
 C         0.0846916813       -0.7295185831       -3.2822715546
 O         0.1790093086        2.6002233105       -3.9889097722
 O         2.1722154419        0.4569828059       -2.6423165273
 C         1.5371244587       -0.3064680617       -6.0567643295
 C         2.8873445486        1.5714742658       -5.1633370979
 C        -0.0259565898       -1.9544927014       -2.3412270147
 C         0.5294569028       -1.6588251104       -0.9399694461
 C         1.2060229535       -2.8422776592       -0.0960116611
 C         1.7110819400       -2.4732031709        1.2449548673
 C         1.7161635850       -3.4080487785        2.4664045274
 C         0.2059530533       -4.0251902347       -0.1123043480
 C         2.5381371791       -3.3419979295       -0.8376895368
 O         0.6559079632       -0.4753993884       -0.5772927393
 O         2.3473955445       -1.4428762396        1.3362467926
 C         2.7580183380       -2.9226966719        3.5124076479
 C         4.1893488900       -3.4340440857        3.3483250327
 C         5.2822593166       -3.1421526396        4.4420301996
 C         6.0295653168       -1.9250390397        3.8740318026
 C         6.5514081295       -1.7914955471        2.3037105345
 O         4.6049624721       -3.9476798994        2.3544791163
 O         6.4042094344       -1.1313765622        4.6362978719
 C         4.8005489100       -2.6984723777        5.8784315454
 C         6.2606993669       -4.3678263900        4.3366701603
 C         6.6180529521       -0.3106089296        1.8562387023
 C         5.2140906733        0.4554332296        1.5437362119
 C         5.2709001994        1.9560373624        0.9202610701
 C         3.8525146142        2.6337880957        1.0840829061
 C         3.7252259069        3.8208439744        2.1634450003
 C         6.3517292479        2.7579607732        1.6740770178
 C         5.7495088733        1.7957391904       -0.5516902625
 O         4.2167640549        0.0917634739        2.1010306655
 O         2.8950603513        2.0151460417        0.6030958986
 C         2.2736712702        3.8829862606        2.7036532105
 C         1.1862699159        4.1394628955        1.5900266339
 C        -0.4011814812        3.9163770302        2.0264404198
 C        -0.8919275812        2.4538884305        2.5295962255
 C        -1.3340671952        1.3576822482        1.5248898160
 O         1.4224383704        4.6678219335        0.4855553975
 O        -0.9531845825        2.2198830353        3.6910805947
 C        -0.6499660037        4.9341915123        3.2267706856
 C        -1.3997738450        4.3745408110        0.9471733064
 C        -2.5005723867        0.4312419466        2.0446221501
 C        -3.9034214651        0.9593049209        1.6122369866
 C        -5.0649817724        0.4043628708        2.5178782110
 C        -5.7468403227       -0.9396454241        2.2343347909
 C        -6.5690085958       -1.6537335920        3.4080265298
 C        -4.7136100237        0.5598572749        4.0350836874
 C        -6.1808662603        1.4573051225        2.1512130262
 O        -4.0277479443        1.7159253064        0.7020817611
 O        -5.9852129841       -1.2321404555        1.1081628953
 C        -7.5965751996       -2.6714936275        2.9887035460
 C        -7.3320595478       -3.7019437388        1.8592543125
 C        -6.2372885444       -4.7088419111        1.9474170041
 C        -4.9014620714       -3.8327653362        1.4213998607
 C        -5.0191050855       -3.2575505082        0.0559449327
 O        -8.1106088622       -3.7910763290        0.9490364494
 O        -4.0301564143       -3.5702168376        2.2362605483
 C        -5.8534739807       -5.1737417365        3.5048335697
 C        -6.5458294338       -5.9037388984        0.8519712800
 H        -3.6448710751        2.9078526374      -10.0472689871
 H        -2.8805645206        1.6494564222       -9.1299479646
 H        -4.4595621756        1.1464651769      -10.0552290000
 H        -1.8981415714        2.9791857635       -4.9409215159
 H        -3.0026243369        1.7808387573       -5.4405601648
 H        -3.8716409206        5.0712904919       -8.7673908356
 H        -3.3958749172        5.5184834365       -7.3843013036
 H        -5.1989959715        5.3954346707       -7.4748297028
 H        -5.9295309647        3.0924834775       -5.7183855202
 H        -4.3459409262        2.9420185728       -4.9982509459
 H        -4.9747398542        4.5258587259       -5.2322619385
 H        -1.2961582584        0.3167439357       -5.9444570124
 H        -0.3501685197        1.5146352735       -6.7834737905
 H        -0.6225696997        0.0351950269       -2.9998656970
 H        -0.2415091399       -1.2110562146       -4.2536455853
 H         2.5409956775       -0.6753810152       -6.0870037999
 H         1.3860741072        0.1431954324       -7.0744700145
 H         0.9305192757       -1.1768767745       -6.1227249638
 H         3.7397705701        1.0573535927       -5.5871156266
 H         2.4923074811        2.3355570429       -5.8364236307
 H         3.2338339536        1.9990725153       -4.2002169865
 H         0.6593360011       -2.8027549798       -2.6479923423
 H        -1.0759501782       -2.2243595220       -2.1061914801
 H         0.8166636264       -3.3986214379        2.9623373443
 H         1.8553130364       -4.5171103352        2.1482263362
 H         0.6740291719       -4.8685569937        0.3497068571
 H         0.0137997775       -4.4770155697       -1.1840723296
 H        -0.8126139359       -3.6223949760        0.2408761672
 H         2.9432479608       -2.6606414782       -1.6317999778
 H         3.2608151348       -3.7753308837       -0.1014251218
 H         2.3877004073       -4.2110387122       -1.5339942087
 H         2.7903258810       -1.8691755576        3.6298430994
 H         2.5186775176       -3.4207316455        4.4822156702
 H         7.6017045465       -2.1347063932        2.4063553127
 H         6.0639759019       -2.4386673231        1.5585362411
 H         4.1971431462       -3.5756457719        6.2145612066
 H         4.3649480067       -1.7200098227        5.9030123849
 H         5.6062163185       -2.4903873589        6.6429790878
 H         7.1590575855       -4.2973154100        4.9557112680
 H         5.7862966594       -5.3814396870        4.5007840848
 H         6.6388696871       -4.3903965652        3.3036992548
 H         7.2879627666       -0.1464737483        0.9869898540
 H         7.0179573809        0.2142336269        2.7461769892
 H         4.4382469032        3.6000353328        2.8938776995
 H         3.7554278774        4.8428557873        1.6063827042
 H         6.2949719150        3.8324425257        1.5417457366
 H         7.3420637507        2.4482704730        1.2655936931
 H         6.4497602935        2.7165094619        2.6983009847
 H         6.8395956232        1.6057380364       -0.4538689345
 H         5.0613276478        1.1590425514       -1.0858675584
 H         5.7542362083        2.8300228899       -1.0387084341
 H         2.1052304219        3.1082126175        3.4855336309
 H         2.2462349556        4.8045221559        3.2235502166
 H        -1.7784842036        1.5868703376        0.5930885932
 H        -0.5300203681        0.6050275708        1.3508418227
 H        -0.0034893417        4.5180378272        3.9779224809
 H        -1.5875553612        4.9257451678        3.7714242602
 H        -0.4641006277        5.9540104877        2.9236560515
 H        -1.1109062430        4.0893253435        0.0086290230
 H        -2.4322816357        3.9512412746        1.0857816414
 H        -1.5936559149        5.4606618923        0.9836575381
 H        -2.2256316722        0.1992859699        3.1073843651
 H        -2.2216731131       -0.5658290030        1.5594461133
 H        -5.8187702913       -1.9525984425        4.1235749064
 H        -7.1830702614       -0.8939509820        3.8493522611
 H        -4.1999732297       -0.4016104941        4.2976704690
 H        -5.6550639759        0.7574826860        4.6338394623
 H        -4.1496791936        1.5087050227        4.1351861662
 H        -5.8744764386        2.3963393182        2.5960293875
 H        -6.2273494522        1.6444457571        1.0431634524
 H        -7.1624733565        1.1369963016        2.6413631989
 H        -7.8881654960       -3.1853833225        3.9293991959
 H        -8.5361622645       -2.1689460511        2.6814600617
 H        -6.0086622989       -2.7949371944       -0.3025569719
 H        -4.1750809874       -2.4880447011       -0.0135345680
 H        -4.6519098640       -4.0611379787       -0.6403936555
 H        -6.0730252745       -4.3788864130        4.1620211600
 H        -4.8151188872       -5.6019665546        3.4180360603
 H        -6.5791689102       -5.8093331783        3.9359548269
 H        -6.4351958790       -5.4447383040       -0.1087533246
 H        -5.6874629765       -6.6572123392        0.8536066038
 H        -7.6146451026       -6.2028562538        1.0827200768
 Na        2.7856688147        0.0051416103       -0.7146567141
