155

 C        -2.1691583830        1.7575821156       -8.5573791014
 C        -3.1826722636        0.6372482492       -7.8849691797
 C        -2.7607197820       -0.3679186636       -6.6967086344
 C        -2.0471209026        0.1652042398       -5.4366338614
 C        -2.9144154688        0.5183455609       -4.2055084416
 C        -4.0508286689       -1.2230174488       -6.3124733068
 C        -1.7506732707       -1.4372536064       -7.1362791300
 O        -4.1437750189        0.3407664697       -8.3742004347
 O        -0.8170955237        0.2007612633       -5.3744327377
 C        -2.1917919279        1.2198809050       -3.0160809999
 C        -2.8537052759        0.6699817089       -1.6824473271
 C        -2.3703522838        1.2763003738       -0.3508843721
 C        -1.3753320866        0.1492179256        0.1082942640
 C        -1.8535040970       -0.9597342171        1.0397345657
 O        -3.3990546386       -0.3981280195       -1.7962600612
 O        -0.1736785294        0.3359962365       -0.1253780315
 C        -1.5513232417        2.6413468342       -0.3916206702
 C        -3.6547534036        1.5247188875        0.5231655801
 C        -2.2648962239       -2.2156812877        0.2159104999
 C        -1.3753388929       -3.3976555548        0.5419914583
 C        -0.8702740237       -4.4722874950       -0.5262770863
 C         0.0275673332       -3.6535257664       -1.4716428187
 C         1.0424874794       -4.4946294653       -2.2723674695
 C        -0.0034467736       -5.4539780727        0.3871497478
 C        -2.1116318770       -5.2772331415       -1.0334163104
 O        -0.9435542728       -3.4794683558        1.6736983054
 O         0.1155762017       -2.4109533543       -1.3581098107
 C         1.8921510916       -3.8065004965       -3.3200831157
 C         1.5545855358       -4.1498875434       -4.7317726941
 C         2.6042519601       -3.5867857572       -5.7791724986
 C         3.3226838351       -2.1892705723       -5.3548382025
 C         2.4882913757       -0.9524368861       -5.2020840782
 O         0.5837269381       -4.7786464702       -5.0501608074
 O         4.4620710909       -2.1828840815       -5.0256228635
 C         3.7405874867       -4.6521734105       -5.8693221813
 C         1.8775496503       -3.4070244936       -7.1615743095
 C         3.4601987795        0.2585194803       -4.7824451271
 C         3.5193976251        0.3023722811       -3.2331988529
 C         4.3880619918        1.4268844241       -2.6033106145
 C         4.8145710873        1.1670600902       -1.0768679575
 C         6.0425205439        2.0497260866       -0.5662961064
 C         5.6483156189        1.7321782179       -3.4702869336
 C         3.4730596452        2.6775675031       -2.7776336124
 O         2.7850623468       -0.3710745140       -2.5773977907
 O         4.1494235743        0.5577194453       -0.2979583239
 C         5.6021107212        2.5148304708        0.8228471533
 C         4.2717205324        3.1314188612        0.7409746808
 C         3.2480997762        3.0036577041        1.8445760766
 C         2.4792887061        1.6903192315        1.7436072690
 C         2.3625238190        0.7092230326        2.9577909890
 O         3.9021184848        3.7041673607       -0.2927745757
 O         1.8968238946        1.3018599786        0.7529581644
 C         3.7285244146        3.3094321105        3.3141078782
 C         2.0198301917        3.9995034115        1.5743228032
 C         1.4927851572        1.0153021302        4.2336728357
 C         0.0492128517        1.3690451300        4.0527921098
 C        -0.8608804853        2.1273096246        5.1631456636
 C        -2.4926416537        1.9266401765        5.0245826095
 C        -3.4023697704        2.6093175227        6.1540145585
 C        -0.3366227681        1.8733859517        6.6333243501
 C        -0.5404126843        3.6231884355        4.7328631763
 O        -0.3761586805        1.4283591547        2.8889581081
 O        -3.0298512149        1.5245004878        4.0559106074
 C        -4.2120496018        1.3819615971        6.6747931114
 C        -4.6487783607        1.5038064886        8.2191413684
 C        -5.7472043022        0.4807427926        8.7882012824
 C        -7.2796187878        0.7258923666        8.0051299646
 C        -8.4993977712        1.2905145124        8.7803685042
 O        -4.1633194457        2.4312385585        8.9029098458
 O        -7.3604576468        0.5816443542        6.8184416897
 C        -5.3462442257       -0.9728863560        8.3899366942
 C        -5.7803025771        0.4876035843       10.2909463290
 H        -2.6489287632        2.2559150318       -9.2847521211
 H        -2.0450383592        2.5489292819       -7.8102078221
 H        -1.2781544525        1.5166215288       -9.0535022174
 H        -3.8833017530        1.1370967151       -4.3098935116
 H        -3.5285023847       -0.3701020628       -3.8078033984
 H        -4.9012201483       -0.5500119327       -6.2091166253
 H        -3.9236639040       -1.7506865803       -5.3080296239
 H        -4.2887487954       -1.8587372594       -7.2220574944
 H        -2.3225370046       -1.9302773207       -7.9234294476
 H        -0.8301722658       -1.0150990931       -7.6511097015
 H        -1.6689302316       -2.1722953652       -6.3581764068
 H        -1.1135562819        0.9132636515       -3.0847730998
 H        -2.0602544718        2.2534174030       -3.0191973542
 H        -1.0722656748       -1.0988919506        1.7593407042
 H        -2.7567592979       -0.5174618783        1.5908298631
 H        -0.8801063189        2.9452356126       -1.1689967408
 H        -0.8465458976        2.4589635000        0.3661976968
 H        -2.2369070886        3.4524466929       -0.1841319216
 H        -4.2376290803        0.6487397708        0.4667165792
 H        -3.4319782625        1.7266005142        1.6068964308
 H        -4.2451233284        2.2968787066        0.0235627728
 H        -2.2802305020       -2.0866228832       -0.8235261586
 H        -3.3337820783       -2.4571520275        0.4385400178
 H         1.6359302676       -4.8655540768       -1.4613790957
 H         0.5299903914       -5.4238093835       -2.7111317146
 H         0.3000751838       -6.3583746627       -0.1283103879
 H        -0.6534671927       -5.7674109222        1.2434435807
 H         0.7111455717       -4.9180889729        1.0424353996
 H        -2.7843719310       -4.7502801423       -1.6782839140
 H        -1.7350877993       -6.2043339341       -1.4356911238
 H        -2.5305497323       -5.5526228301       -0.1157636782
 H         1.8930348504       -2.7994979311       -3.1343446807
 H         2.9484338787       -4.1382685627       -3.1025324364
 H         1.6577073060       -0.8783287646       -5.9077792074
 H         1.8594063156       -1.2933609081       -4.3447930844
 H         4.5148517529       -4.5466657558       -6.5935040873
 H         3.2637071233       -5.5848993421       -5.9034349317
 H         4.2186327108       -4.5497798457       -4.9419142233
 H         2.4057850154       -2.6662757427       -7.8061804378
 H         2.1555621131       -4.3564961462       -7.6794044307
 H         0.8073725655       -3.2803152209       -7.2823184607
 H         3.1558433582        1.3332756294       -5.0379039143
 H         4.5291028270        0.1145691226       -5.0993408116
 H         7.0196812050        1.5497378103       -0.3861944329
 H         6.0381462004        2.8908692241       -1.2575557399
 H         5.9755278413        2.7430287663       -3.1661596110
 H         5.3932998569        1.7563343310       -4.5669014348
 H         6.4956259584        1.0100541058       -3.3421697250
 H         4.0984646419        3.4935508642       -2.5646848023
 H         3.3292225215        2.8362212142       -3.9212420892
 H         2.5534331282        2.8987944356       -2.2165863069
 H         5.5590692218        1.6337327624        1.4775808305
 H         6.3680842794        3.2427166778        1.4189555159
 H         1.7818132543       -0.2190165673        2.6119728259
 H         3.3588841844        0.2744898408        3.2706450003
 H         3.2180260683        2.6943981852        3.9526095910
 H         3.3298725988        4.2768892652        3.5066137510
 H         4.8100932518        3.1281332931        3.4053382915
 H         1.7138698641        3.8149790567        0.4617329833
 H         1.1938153921        3.5549444103        2.1315711882
 H         2.3104868377        4.9897154588        1.9023521448
 H         2.0009358623        1.7697887095        5.0237234968
 H         1.5091167065        0.0517111271        4.8813737270
 H        -2.9680509652        3.1167986440        7.0281069355
 H        -4.0926002876        3.2842864830        5.5837840383
 H        -0.8403216098        1.0741300221        7.2333067518
 H        -0.3531900707        2.7476250241        7.3228341831
 H         0.6766286383        1.5072370391        6.5212198599
 H        -0.0335250503        4.3058675151        5.3400162340
 H        -0.0636695571        3.6232910663        3.7826338624
 H        -1.4561516825        4.1774719068        4.5929195201
 H        -5.0285497285        1.1968069330        6.0764415826
 H        -3.5545341009        0.5191206811        6.5673380577
 H        -9.5227107713        0.8581261951        8.4505625458
 H        -8.3191205924        1.1568827351        9.8966287163
 H        -8.4484008124        2.4379382106        8.7669933324
 H        -4.9644432629       -1.1545472135        7.3404071387
 H        -6.2173833371       -1.6042460111        8.5083932069
 H        -4.4830841676       -1.4319001047        8.9506785018
 H        -6.7578971225        0.2597997331       10.7827863617
 H        -5.2563460994       -0.3892976148       10.6969160468
 H        -5.2306218611        1.3449659897       10.5077032716
 Na        1.7992717994       -0.6669930838       -0.5963481048
