155

 C        -1.5107132462        0.9958562241       -8.3701403409
 C        -2.8991323008        0.4547584852       -7.8118131231
 C        -2.8809977250       -0.7413887261       -6.6342418518
 C        -2.2037929789       -0.0418490681       -5.4424474195
 C        -3.0587047055        0.2720992360       -4.2834353395
 C        -4.3245170611       -1.4192433859       -6.3318216983
 C        -1.9798474975       -1.8653814890       -7.1366381878
 O        -3.9404207009        0.8213965969       -8.2234310448
 O        -1.0609035483        0.3335834891       -5.5610479137
 C        -2.1911307524        0.8307485087       -3.0254016069
 C        -2.8833490716        0.7282338332       -1.6461139041
 C        -2.2926798507        1.4079604236       -0.3338758965
 C        -1.3106641584        0.3351206786       -0.0226019972
 C        -1.5601460439       -0.7231520916        1.1035702791
 O        -3.8415726052       -0.0401438038       -1.5239767038
 O        -0.2778103282        0.3618182199       -0.6658775360
 C        -1.6784315940        2.8073080688       -0.4801785971
 C        -3.4894280887        1.5075424170        0.7432725991
 C        -1.9241734226       -2.0828183835        0.4793787325
 C        -1.2515904082       -3.4107850440        0.9528422383
 C        -0.8180362359       -4.3171211527       -0.3077605665
 C         0.4046940788       -3.7708508542       -1.1670776514
 C         0.3459754047       -4.1350284629       -2.6431665879
 C        -0.5501979011       -5.8066636900        0.3777178239
 C        -2.2044159435       -4.5037732089       -1.0114685719
 O        -1.2907770594       -3.8339594862        2.0600232104
 O         1.2372531015       -3.0272205456       -0.6965360454
 C         1.3852487357       -3.4960933756       -3.5706422301
 C         1.2656175151       -3.8283757062       -5.1381586433
 C         2.3854947118       -3.4813842041       -6.0732594745
 C         3.1407985277       -2.0708303307       -5.5498028556
 C         2.4774561947       -0.7514960532       -6.0873092843
 O         0.2997152142       -4.4376552803       -5.5753732790
 O         4.1650644538       -2.0769181974       -4.9379819945
 C         3.5181661642       -4.6856497114       -5.9659151902
 C         1.8156397255       -3.4588987645       -7.4747097517
 C         3.0690849264        0.5931635435       -5.4161394073
 C         3.0754972786        0.5262350449       -3.9641903731
 C         4.3209332781        1.2507596470       -3.2118970890
 C         4.4295299250        0.9641699550       -1.7162424711
 C         5.3987847310        1.8458754933       -0.9799832629
 C         5.7957231535        0.8251392749       -3.8956928636
 C         4.2474285133        2.7930787198       -3.4679625849
 O         2.2488303520       -0.0797904119       -3.3001453734
 O         3.9899537662        0.0235307384       -1.0672256071
 C         4.8939564957        1.9289568667        0.5601828792
 C         3.8372045389        3.0034523344        0.8400383084
 C         3.2164315212        2.9428323826        2.2540819483
 C         2.5426795232        1.4484599961        2.1026993986
 C         2.3923751823        0.5609794381        3.3345694298
 O         3.5077173540        3.7676195824        0.0137381090
 O         2.1739156353        1.1032934821        1.0545624739
 C         4.1326106673        2.9252096905        3.4878702166
 C         2.1123891865        4.0678788167        2.3641806116
 C         1.5648053481        1.2642705264        4.4774843438
 C         0.0579209028        1.6486043532        4.2522132412
 C        -0.6436953880        2.3852127574        5.4524101103
 C        -2.1875312381        1.9264772483        5.3915031214
 C        -3.0957714953        2.4316315527        6.4243950066
 C         0.0890478247        2.1196029898        6.7099020060
 C        -0.5170958797        3.9160170390        5.1758348609
 O        -0.4716609518        1.5382718825        3.1264256468
 O        -2.5937593741        1.2079962618        4.5010912019
 C        -3.9480061664        1.2364408989        6.9376623652
 C        -4.4704728368        1.4762903310        8.3043762747
 C        -5.4672165989        0.4854981340        8.9225330613
 C        -6.8173273598        1.1720775332        8.3526345588
 C        -7.9118014546        1.7984792764        9.1555735413
 O        -4.1859384755        2.5079950451        8.8599290812
 O        -6.9337075960        1.1158184414        7.1342862681
 C        -5.3194889964       -1.0213562311        8.4638081631
 C        -5.3831804389        0.2864367789       10.5561062763
 H        -1.7598423886        1.9107257856       -8.8051851952
 H        -0.9373503425        1.4238707777       -7.6213487518
 H        -0.9121091270        0.4066069589       -9.0505908057
 H        -3.6774187150        1.1994451934       -4.5916607111
 H        -3.8354969184       -0.4186470184       -3.8066744446
 H        -5.0991945200       -0.7050114088       -6.2965133166
 H        -4.3174761975       -1.8092216307       -5.3347427063
 H        -4.6242395473       -2.1576774460       -7.0360364155
 H        -2.4293105051       -2.1752366233       -8.1207098946
 H        -0.8411442109       -1.5277197021       -7.2936546550
 H        -2.0937099825       -2.6899314395       -6.4430037378
 H        -1.2031872061        0.3264443122       -3.0078121614
 H        -1.9960396981        1.8591796705       -3.1723659666
 H        -0.6316386216       -0.8581811479        1.7547067478
 H        -2.2358798289       -0.3717523836        1.8498979123
 H        -0.8002348744        2.8956794980       -1.1141394443
 H        -1.2248450498        3.1057726329        0.4605322567
 H        -2.5358448950        3.4889929044       -0.7895179706
 H        -3.9450271427        0.5691275943        0.7250131103
 H        -3.2901943183        1.7821805474        1.8045446619
 H        -4.1339577901        2.3067010345        0.3515983699
 H        -1.6637084446       -2.0680065289       -0.5541548239
 H        -3.0086478083       -2.3012269836        0.6187449586
 H         0.2635352512       -5.1814695069       -2.9041799313
 H        -0.6245459922       -3.8029248815       -3.1467132578
 H        -0.8234469911       -6.7123047127       -0.3070125387
 H        -1.2790331520       -5.9870665906        1.1809599094
 H         0.3258334454       -5.6612677484        1.0122715616
 H        -2.5006840574       -3.6209292319       -1.4607155181
 H        -2.0252516169       -5.3419631480       -1.7268337622
 H        -2.9010161931       -4.7096974682       -0.2398984563
 H         1.3626880717       -2.4925669286       -3.4179259400
 H         2.4094678504       -3.8525941464       -3.2299016179
 H         2.4034765521       -0.6519921509       -7.1451282231
 H         1.3825621436       -0.7694747500       -5.8338765481
 H         4.3745934849       -4.4365564009       -6.6148542905
 H         3.0686402912       -5.6225389613       -6.3438200116
 H         3.8794562216       -4.7641926803       -4.9131983716
 H         2.5874999870       -3.7005830923       -8.2252443817
 H         0.8192242825       -3.8840559799       -7.5612744303
 H         1.5877869623       -2.4414023125       -7.7273173124
 H         2.3456399170        1.4800715892       -5.6204744017
 H         4.0219857797        1.1140872172       -5.7621379900
 H         6.3266616166        1.3521677940       -1.0268491573
 H         5.4649822680        2.9465355308       -1.3209428978
 H         6.6877479744        1.1474528056       -3.3338101699
 H         5.7740372567        1.4712676441       -4.8841974824
 H         5.8014609014       -0.2379699425       -4.0858397131
 H         5.0470099879        3.5084382264       -3.3837515514
 H         3.8517696364        2.8862885780       -4.5636425579
 H         3.4523044647        3.2506766457       -2.8692001549
 H         4.5452259680        0.9476542692        0.8093155799
 H         5.8360244022        2.3246986967        1.1662144697
 H         1.9741032055       -0.4128823718        3.1105124272
 H         3.3789368670        0.2810670196        3.6790837794
 H         5.2536499111        3.0875402682        3.3038480566
 H         4.1010737713        1.8895127601        4.0388149332
 H         3.7047124344        3.7011936069        4.0992373185
 H         1.3087244125        3.7838356044        1.6960506687
 H         1.8433205414        4.1323454036        3.4094124275
 H         2.5524470738        4.9906303139        1.9446593652
 H         2.1801599931        2.2606216670        4.6187000518
 H         1.5933059959        0.6699463073        5.4381151311
 H        -2.6842808940        2.9920739300        7.2827375931
 H        -3.7304586951        3.2757038870        6.0123608710
 H         0.3416140483        1.0438991254        6.8767222029
 H        -0.6365297790        2.4277996877        7.5496646073
 H         0.9593158487        2.8298505144        6.7517925226
 H        -1.2375899414        4.4478216343        5.8713226596
 H         0.4638471989        4.2899411264        5.3808103886
 H        -0.8907460044        4.2620453561        4.1502983934
 H        -4.7530801308        0.9967125503        6.3389905942
 H        -3.2747432373        0.3733559867        7.0197549537
 H        -7.7642585018        1.8937645765       10.2488207783
 H        -8.0437343512        2.7572144597        8.6729531834
 H        -8.8267885784        1.3013354048        8.8416866104
 H        -5.4747898087       -1.1627827605        7.3910874544
 H        -6.0353917477       -1.5914921615        9.0749167748
 H        -4.3387622834       -1.5483412531        8.7354692771
 H        -5.8454204112       -0.6702130612       10.8368225045
 H        -4.3549889811        0.0026986124       10.7682390591
 H        -5.7811294016        1.1672065250       11.0477183529
 Na        1.7755589941       -0.5889916766       -0.7397197462
