155

 C        -1.4134129260        0.3604833337       -8.5711734475
 C        -2.6703317397        0.3000288549       -7.7421751415
 C        -2.8422831210       -0.9507512941       -6.6965620706
 C        -2.3255898843       -0.3037735670       -5.2940612664
 C        -3.2033148544       -0.1504100284       -4.0089851504
 C        -4.3567403241       -1.1987854667       -6.4274986308
 C        -2.0643967947       -2.2780765945       -7.0507959686
 O        -3.5331578372        1.2001128710       -7.8456873918
 O        -1.1244556919       -0.1263494632       -5.1371107041
 C        -2.6465862916        0.9081345033       -3.0163986688
 C        -3.2404215666        0.8789686295       -1.6189577097
 C        -2.3788088935        1.2983568378       -0.4457932776
 C        -1.0042981433        0.4036379727       -0.4382492958
 C        -0.9185574836       -0.6588034574        0.6749884051
 O        -4.4585080224        0.7039497513       -1.3679420969
 O        -0.0816608982        0.5431219771       -1.2231615113
 C        -1.9808052879        2.7533717913       -0.7026027501
 C        -3.0873312670        1.0724101144        0.9320613808
 C        -1.8741822734       -1.7909465814        0.3749935196
 C        -1.1442484360       -3.1345072101        0.7199643950
 C        -0.8531992248       -4.1926984728       -0.4786554114
 C         0.2455287595       -3.4317788027       -1.3502929955
 C        -0.0337383989       -3.0806792861       -2.7584923572
 C        -0.3400135374       -5.4689412481        0.2173770817
 C        -2.1926118358       -4.5316089069       -1.1152793341
 O        -0.7152635197       -3.4536275184        1.8083404302
 O         1.2621298168       -3.0142138163       -0.8209902705
 C         1.2427882563       -3.2160999240       -3.4794686578
 C         0.9984183543       -3.3928385387       -4.9721179558
 C         2.1963974406       -3.4178552418       -5.9857647028
 C         2.6624711650       -1.8583061524       -5.7580521244
 C         1.9680603452       -0.7471535111       -6.3622997727
 O        -0.0678338048       -3.6217914859       -5.4756542303
 O         3.4373169052       -1.6453927785       -4.8509805974
 C         3.3126980394       -4.3614500047       -5.6692805823
 C         1.5407823164       -3.7904071702       -7.4007494218
 C         2.4458073782        0.6454950653       -5.8167299666
 C         2.8149056654        0.4041442523       -4.3491592530
 C         4.4453442428        0.7375005600       -3.7173500027
 C         4.3555801846        0.7446010541       -2.1386597678
 C         4.9346376835        2.0255274544       -1.5091888885
 C         5.4905812153       -0.0972405842       -4.3481583111
 C         4.6434418187        2.1659090914       -4.2273076419
 O         1.8957960252        0.0528785290       -3.5636675933
 O         3.8940426724       -0.1540404787       -1.3873613447
 C         4.9721023743        1.8862707706        0.0552507826
 C         3.9743048642        2.8475080478        0.7047931229
 C         3.3605570263        2.4602702128        2.2795512409
 C         2.5032978115        1.0322586223        2.3611461502
 C         2.2983794267        0.1969660677        3.7728021057
 O         3.5632200854        3.8599719276        0.2417724392
 O         2.0312890095        0.6100045698        1.3914902210
 C         4.6074960290        2.2758087518        3.2334890430
 C         2.4873166100        3.7130730752        2.6599843142
 C         1.5432808870        1.0492214488        4.9996249269
 C         0.4646747404        2.0642461252        4.4961927443
 C        -0.4364500555        2.5425420234        5.6431811117
 C        -1.8265629615        1.7988626131        5.6328586934
 C        -2.9874356209        2.2761312215        6.4763157064
 C         0.0937992948        2.4359799371        7.1436751711
 C        -0.7454945779        4.0871922792        5.4390392520
 O         0.2156884266        2.2109527485        3.2886553644
 O        -2.0197640110        0.9335691254        4.8011215094
 C        -3.7349899669        1.1806821943        7.2536181715
 C        -4.1995455611        1.4959969889        8.6042100311
 C        -5.3986289229        0.5921903822        9.2439369911
 C        -6.7831704640        1.3185528118        8.7466323760
 C        -7.6466482867        2.3944881539        9.6001038041
 O        -3.7063659851        2.3803363475        9.2136516103
 O        -7.1949584433        1.0708931873        7.6067894776
 C        -5.3495967850       -0.8242998057        8.5687629865
 C        -5.4135407537        0.2911468477       10.8522885670
 H        -1.0145596247        1.4129576453       -8.5358670789
 H        -0.6635677383       -0.1041195636       -8.0677521262
 H        -1.5029135164       -0.1363543445       -9.5830179360
 H        -4.3235058754        0.0841848090       -4.0720517692
 H        -3.0102162135       -1.1585153672       -3.5592680170
 H        -4.6573019131       -0.3664618050       -5.8483921245
 H        -4.4888555620       -2.0219686510       -5.7800226521
 H        -5.0726246132       -1.3916895554       -7.1666295999
 H        -1.2926066978       -1.9904195850       -7.7602109936
 H        -1.7134255497       -2.8380994845       -6.2038532852
 H        -2.7750208751       -2.9510000737       -7.5436679118
 H        -1.5763187448        0.7182218640       -2.9446795562
 H        -2.8602034716        1.8035438941       -3.5094339636
 H         0.2296332433       -0.9755234839        0.7328200459
 H        -1.0148116191       -0.2892642794        1.6426360378
 H        -1.2636419964        2.9310767724       -1.4985553250
 H        -1.7383159128        3.1723815406        0.2839309644
 H        -2.8626156779        3.4159497241       -0.9120265238
 H        -3.2284126968        0.0235351501        1.0562632674
 H        -2.5388603050        1.5061752126        1.7784693500
 H        -4.1250153666        1.5283188499        0.9574989286
 H        -2.1427265241       -1.8287533064       -0.6683167982
 H        -2.6807959463       -1.7481727013        1.1247079073
 H        -0.7876581201       -3.6263259711       -3.3247611685
 H        -0.5026710465       -2.0572596859       -2.8580886964
 H         0.0813284395       -6.3527851422       -0.4619571908
 H        -1.2618769685       -5.8927818714        0.6711521714
 H         0.4004385426       -5.0747744034        0.9639332566
 H        -2.7815011935       -3.6527735242       -1.2845501552
 H        -1.8462323685       -4.9208555602       -2.1547326420
 H        -2.6803322663       -5.3035107823       -0.4872579118
 H         1.8250656851       -2.4015761440       -3.3425348521
 H         1.8219232802       -4.0313673658       -2.9169464372
 H         2.0519619532       -0.7824787354       -7.4149480650
 H         0.8871297025       -0.7711682083       -6.1949306514
 H         4.0053233370       -4.1622880888       -6.4906529826
 H         2.9224891215       -5.4126969421       -5.6955342207
 H         3.7257707944       -4.1501496803       -4.6231339112
 H         2.2981103053       -3.5635085743       -8.1677656516
 H         1.1800538186       -4.8200578414       -7.5025124383
 H         0.7033010464       -3.1394909488       -7.5998490227
 H         1.7406962580        1.4928596060       -5.6345247579
 H         3.2720851059        1.1483066772       -6.3783569482
 H         5.8613774497        2.1408684089       -1.9514244745
 H         4.3476492673        2.9475829747       -1.7380842339
 H         6.4067347016        0.3770932697       -3.9945966018
 H         5.3966777728        0.1528216205       -5.4470734099
 H         5.5088464599       -1.1160978201       -4.0421743046
 H         5.4981241467        2.7547056644       -3.8034329752
 H         4.8273029231        2.1797852899       -5.3002118540
 H         3.7835320021        2.7688847722       -4.2172916248
 H         4.8010888935        0.8243687794        0.2084537332
 H         5.9815070640        2.3592433549        0.2523995773
 H         1.8993086960       -0.7707027470        3.6146358522
 H         3.2311667356        0.0979268729        4.2167266048
 H         4.5381453253        1.7657642195        4.3106768821
 H         5.0891972104        3.3003206869        3.4422212756
 H         5.3631128886        1.5862630299        2.7510048171
 H         1.7763778760        3.7854569849        1.9533907031
 H         2.1918882510        3.6568347617        3.7012534725
 H         3.0843564328        4.6066983823        2.4261579808
 H         2.4375054452        1.4789265871        5.4978740421
 H         1.0711451902        0.2259114068        5.5701281382
 H        -2.6807296451        3.1656071256        7.1013439712
 H        -3.8000340296        2.7951205467        5.8505184234
 H        -0.2355041185        1.5358629616        7.5466967711
 H        -0.2981626134        3.2980720660        7.6474069834
 H         1.1711008343        2.5030690943        7.1811060208
 H        -1.3056339704        4.4525197802        6.3823038568
 H         0.1567951458        4.7296103094        5.3502803067
 H        -1.3067072664        4.1854225922        4.4330136222
 H        -4.4410429131        0.7811384864        6.5845616099
 H        -2.9495978435        0.3902399604        7.4924568426
 H        -7.4553068393        3.3472535142        9.2390646710
 H        -8.6545223666        2.1972451612        9.4142961157
 H        -7.4535836107        2.3238759086       10.6161254155
 H        -5.4729929233       -0.7911095695        7.5233437240
 H        -6.2654497458       -1.3479895558        8.8678585769
 H        -4.4735528516       -1.4050378040        8.9797719586
 H        -6.1903567800       -0.4151045580       10.9445340113
 H        -4.3899759493        0.0462117568       11.1515128396
 H        -5.8314486660        1.2126426448       11.3540342511
 Na        1.8599700354       -0.9339520653       -1.3150549352
