155

 C        -1.4701352395        0.2533266975       -8.5234926706
 C        -2.5526799865        0.2498688492       -7.4508135861
 C        -3.2889268078       -0.8774323501       -6.5760826020
 C        -2.6201635388       -0.5970688277       -5.1657478113
 C        -3.4101311798       -0.2839864674       -3.9236260366
 C        -4.7599764417       -0.8020798507       -6.6263867826
 C        -2.8555419890       -2.2806685930       -7.0301187613
 O        -3.0303879752        1.4539695971       -7.2761560299
 O        -1.4006907848       -0.9590380065       -5.0948324510
 C        -2.7644352651        0.8833319095       -3.2046750992
 C        -3.2092835766        0.9843589164       -1.7378488911
 C        -2.2809829360        1.5998428845       -0.5922007915
 C        -1.0352966994        0.6342673795       -0.4963763589
 C        -0.8321104353       -0.4325328070        0.7092857126
 O        -4.2855284380        0.6043744786       -1.3953873003
 O        -0.1948616943        0.6454734224       -1.3825134519
 C        -1.7318913092        3.0490366689       -0.9649708373
 C        -3.1071112180        1.5627107306        0.8046000029
 C        -1.6938609051       -1.7246750783        0.4939066106
 C        -0.9740606464       -3.1118306178        0.7894083457
 C        -0.5989931566       -4.0646820853       -0.4329234422
 C         0.2384477490       -3.0628592913       -1.3734169409
 C        -0.1043999690       -2.8818162974       -2.7940496708
 C         0.1859570527       -5.3537465078        0.0199964756
 C        -2.0202394218       -4.4855773378       -0.9237631062
 O        -0.6188203349       -3.4247488325        1.9006774435
 O         1.0842920559       -2.3716463468       -0.8837570406
 C         0.8810623166       -3.6107359106       -3.7045995808
 C         0.5139439627       -3.6418638070       -5.1531736891
 C         1.6858002000       -3.5425615638       -6.0296320007
 C         2.4330078280       -1.9852601637       -5.9407614123
 C         1.5543949321       -0.8156562369       -6.3309697732
 O        -0.6174584705       -3.8024147062       -5.5510683460
 O         3.4495102288       -1.8908653242       -5.2631537922
 C         2.7388719164       -4.5145807923       -5.5726138895
 C         1.3478673754       -3.7058681640       -7.5459343581
 C         2.4424956205        0.5588867752       -6.1719040948
 C         2.8712758640        0.4664340721       -4.5732342482
 C         4.2595460852        0.8188448820       -4.0072465298
 C         4.3731965928        0.8650079731       -2.5589755905
 C         4.8436619330        1.9624114166       -1.6755420205
 C         5.4518998375       -0.2712601970       -4.6142116551
 C         4.7156579586        2.1484666167       -4.7191412675
 O         1.9269227396        0.0367581231       -3.8768349744
 O         3.8761488811       -0.1561995567       -1.9839509054
 C         4.7610113601        1.5474126033       -0.1097029147
 C         3.8157418844        2.4102315532        0.7558581205
 C         3.8628128489        2.0067205315        2.3295496093
 C         2.7138339766        0.8711973455        2.3109962406
 C         1.9021485321        0.2964467283        3.4323422161
 O         3.0945198857        3.3684901127        0.3602179706
 O         2.3220131572        0.4502245840        1.2842910475
 C         5.2645971530        1.5892584961        2.8804046801
 C         3.3678327486        3.2655367135        3.0395465058
 C         1.6633189201        1.1347882006        4.7679007978
 C         0.5004062794        2.1157181939        4.5867494444
 C        -0.3682477657        2.6731994351        5.8274917681
 C        -1.6351909938        1.7741642625        5.9893902526
 C        -2.7279446347        2.2206430157        6.9626601321
 C         0.4468214992        2.6815557356        7.1884515653
 C        -0.8722951084        4.1462774336        5.5683465263
 O         0.3644839991        2.4979985595        3.4664772293
 O        -1.6018771052        0.6933518714        5.4425525925
 C        -3.8342677969        1.1684849514        7.2218475142
 C        -4.2030899190        1.2418345511        8.8183591018
 C        -5.3544277232        0.5113071744        9.5247800127
 C        -6.6281411353        1.4952036459        9.0751666128
 C        -6.7057649319        2.9750741431        9.5420811476
 O        -3.5695889151        2.0501881311        9.4204235680
 O        -7.3043449372        1.0815302947        8.1581283160
 C        -5.6602211441       -0.9592735391        9.1416042784
 C        -5.2752670483        0.6554378016       11.0530009792
 H        -1.3243569541        1.3516602501       -8.7854140792
 H        -0.5532517954       -0.2121452038       -8.0972264013
 H        -1.7010161979       -0.3752739073       -9.3803410533
 H        -4.4481817036       -0.1608323724       -4.2743966613
 H        -3.3457313398       -1.1868752471       -3.3607205504
 H        -5.1907725455        0.1806758895       -6.2072546523
 H        -5.1378396055       -1.6702979004       -6.0885420172
 H        -5.3594478086       -0.9509937421       -7.5338784163
 H        -1.8281241708       -2.2426334088       -7.2917463967
 H        -3.0483171765       -3.0106860905       -6.3613245318
 H        -3.3950435109       -2.5242030071       -7.9466304995
 H        -1.6871318338        0.6684303745       -3.4467008063
 H        -3.1066364851        1.7703549474       -3.6988605326
 H         0.2289948606       -0.6042920447        0.6279658852
 H        -1.0830602085        0.0004769395        1.6934583309
 H        -1.5475555081        3.0237974320       -2.0283651724
 H        -0.9100039083        3.2014353278       -0.3006588822
 H        -2.3596162967        3.9146305203       -0.8018995221
 H        -3.6845541993        0.6483031216        0.9457569709
 H        -2.3485248437        1.6186008598        1.5135796546
 H        -3.9070388698        2.3171270928        0.9104574345
 H        -2.1284323260       -1.7823311191       -0.5300180608
 H        -2.5832007856       -1.7203859366        1.1972414607
 H        -1.1227466808       -3.2778881279       -2.8937699005
 H        -0.1752838741       -1.8145533709       -3.1937968396
 H        -0.1506264362       -6.2861521423       -0.3412731179
 H         0.2140856007       -5.1952695727        1.1640195042
 H         1.2037859448       -5.4332545757       -0.3990202527
 H        -2.5820104359       -3.6392565557       -1.3797334750
 H        -1.7487410924       -5.1393242326       -1.7951818280
 H        -2.5835078296       -5.0469719446       -0.1389261688
 H         1.8844208900       -3.3210395787       -3.3743271031
 H         0.8519000530       -4.6753339193       -3.3650022552
 H         1.0036969357       -0.8186852533       -7.2290782626
 H         0.8151983786       -0.5142954669       -5.5959791549
 H         3.4629647890       -4.4457689450       -6.3115472659
 H         2.2682279060       -5.4570890418       -5.7468743553
 H         3.0992789125       -4.4285750430       -4.5556894041
 H         2.0354418962       -3.1197976040       -8.1317104792
 H         1.3849831468       -4.6453497216       -8.0020940565
 H         0.4062460202       -3.1604704060       -7.6083962042
 H         1.7631017991        1.3928189496       -6.2760980652
 H         3.2562280710        0.7360998388       -6.8487087805
 H         5.7496192788        2.3852217393       -1.9966710491
 H         4.2417062634        2.8463692099       -1.6726591368
 H         6.2907256188        0.1030207898       -4.0648660917
 H         5.4977751520       -0.2085726223       -5.6416910584
 H         5.2794186663       -1.3228521547       -4.2938561865
 H         5.7788707002        2.4649811580       -4.4524475165
 H         4.7962768535        2.0118745259       -5.7406764037
 H         4.1325443007        3.0304429004       -4.5686075286
 H         4.3790110550        0.5209138922       -0.1554031694
 H         5.7872757635        1.6956453892        0.2012205997
 H         0.8992232194        0.0966049453        3.1341601418
 H         2.4212136558       -0.6095419539        3.6022658108
 H         5.5190789816        1.5455683934        3.9676624683
 H         6.1151462623        2.1203040253        2.4303963871
 H         5.5791753030        0.4967261746        2.6375978870
 H         2.3461385288        3.5449377819        3.0091440297
 H         3.6985521019        3.0027922354        4.0379691700
 H         4.0741537545        4.0727598072        2.7937140580
 H         2.5434453410        1.5321373628        5.1966227351
 H         1.3256394974        0.3241806975        5.4415314970
 H        -2.3020331159        2.4205011284        7.9638233058
 H        -3.0640579951        3.2042118842        6.5087973978
 H         1.0740393460        1.8727696496        7.3860129817
 H        -0.3200421062        2.7696921739        7.8778094242
 H         0.9823488846        3.5986713081        7.1512031126
 H        -1.5487508267        4.2803399826        6.4287986181
 H        -0.0206223395        4.8775680204        5.6974980475
 H        -1.3697830642        4.1266440006        4.5985774712
 H        -4.7268308484        1.2845516907        6.6245089783
 H        -3.3974761197        0.1851909502        6.7989800437
 H        -7.4358326250        3.5419799888        9.0254805400
 H        -6.8446957924        3.1003428097       10.6209199049
 H        -5.6851158605        3.2688357206        9.3001683410
 H        -6.4447217358       -1.0231018709        8.4363679626
 H        -6.0436436420       -1.5490703576        9.9856997262
 H        -4.7689995163       -1.1941760243        8.6214444847
 H        -4.2707519940        0.8732617755       11.3508255260
 H        -6.0057431034        1.4112659839       11.3464829239
 H        -5.3322834266       -0.3524030044       11.5993120069
 Na        1.8433283896       -0.1119816079       -1.0957002833
