155

 C        -6.7315473660        1.4509018864       -7.5928252863
 C        -5.6072450449        1.4437564022       -6.4650588985
 C        -6.1170315264        1.6184219523       -4.9848238665
 C        -4.7535147245        1.7457722067       -4.2806622914
 C        -3.9382507692        3.0706855403       -4.1841023926
 C        -7.2227642116        2.6803005876       -4.6844908131
 C        -6.7469464061        0.1495312238       -4.6887234854
 O        -4.4336665227        1.4773294052       -6.7598387660
 O        -4.1262428357        0.8229702384       -3.8325802849
 C        -2.9407418429        3.1103377337       -3.0276744334
 C        -3.4936359179        2.5411622038       -1.7821623128
 C        -2.5354986198        1.9157749480       -0.6112612266
 C        -2.7070347033        0.3660616566       -0.7334481494
 C        -4.0134786733       -0.3274958320       -0.7744787300
 O        -4.7160462450        2.3860214545       -1.5382483392
 O        -1.6574951446       -0.2133798272       -0.7437037567
 C        -0.9768919518        2.1952572102       -0.7349782517
 C        -3.1359405858        2.2698350173        0.7726413054
 C        -3.9824456347       -1.8557880027       -0.9263302698
 C        -3.0521688354       -2.4987692019        0.0853264309
 C        -2.1587836839       -3.6449800150       -0.3714660434
 C        -0.9617576184       -2.9688199823       -1.0981940884
 C        -0.6576269701       -2.9857715214       -2.6155175825
 C        -1.6822889793       -4.3427776982        0.9090573612
 C        -2.9251230564       -4.6618279284       -1.2412549852
 O        -3.1558104689       -2.1267562561        1.2393256166
 O        -0.0493421786       -2.7245818000       -0.3282025494
 C         0.4703601156       -4.1473905659       -2.7117166157
 C         0.7610844288       -4.8283346064       -4.1009662320
 C         0.5879572337       -4.0480428978       -5.4824685449
 C         1.1824761970       -2.5718435958       -5.3811091808
 C         0.0875546175       -1.3985502602       -5.5432170247
 O         0.9384049156       -6.0027405148       -4.1119984038
 O         2.3626483328       -2.3874322778       -5.4388317967
 C         1.4969849264       -4.9221174656       -6.4278488106
 C        -0.9629130634       -4.0810202974       -5.8177615922
 C         0.8235615346       -0.0314525686       -5.6416285664
 C         1.3986930239        0.2943763772       -4.2503081619
 C         2.7997113845        0.6796408801       -4.0969375381
 C         3.4284125828       -0.7372642601       -3.4301348967
 C         4.9922146337       -0.8064772386       -3.1345146830
 C         3.4642476499        1.5098716262       -5.2667223161
 C         3.0142953944        1.5746366311       -2.8452594163
 O         0.4907757335        0.3906249422       -3.4039456794
 O         2.6819321454       -1.5240027825       -2.8101071920
 C         5.4618677256       -1.1594952576       -1.7153055625
 C         5.1910631634        0.0012630672       -0.7190605877
 C         4.8211023106       -0.3141623190        0.8563445734
 C         3.3725408929       -0.4557876688        1.0366726103
 C         2.6194918981       -0.1134777432        2.2865736057
 O         5.4690684158        1.1019767603       -1.1540089227
 O         2.8059845895       -0.6661470801       -0.0331736144
 C         5.6810610354       -1.3618037231        1.5169529416
 C         5.2044765093        1.1578598272        1.6076023299
 C         1.8187732854        1.2495701189        2.2634780322
 C         0.5793166408        1.0461869050        3.2837875945
 C         0.5233924147        2.0100259984        4.5046801476
 C         1.1100295066        1.2435767608        5.8377308099
 C         1.1438465924        2.1377653669        7.1485522892
 C         1.0190319580        3.3983354489        4.1357559879
 C        -1.0839746464        2.0268046135        4.7849781339
 O        -0.2523259689        0.1979404644        3.0190493847
 O         1.3298154282        0.0463882076        5.8715543336
 C         1.3332160272        1.4535361176        8.4880326061
 C         1.0347834023        2.3770387773        9.6897760201
 C        -0.3216332979        2.3402038885       10.5955959506
 C        -1.5633686347        2.4039791006        9.5046074707
 C        -2.8263859321        1.6557814971        9.8528833371
 O         1.8501206368        3.2675297739        9.9438025699
 O        -1.4666919864        3.1536728355        8.5855479364
 C        -0.3334718713        1.1534309861       11.5452233283
 C        -0.5722403994        3.6103393696       11.3577489410
 H        -7.7320450421        1.5959425626       -7.0891878208
 H        -6.4304581880        2.4014986903       -8.0140323898
 H        -6.7437122343        0.6238581483       -8.1492329275
 H        -3.4002436923        3.3637344936       -5.1347102090
 H        -4.7083828917        3.9210535337       -4.1438531936
 H        -6.9078062123        3.5928279544       -5.0126804050
 H        -7.3207286687        2.9063420367       -3.5854924558
 H        -8.2266026033        2.4407907916       -5.1744698555
 H        -7.8730763783        0.1089421859       -4.8498049270
 H        -6.2223715203       -0.5696341397       -5.3389678765
 H        -6.5864691735       -0.0328334581       -3.5494742220
 H        -2.0789572265        2.4056199789       -3.1922434388
 H        -2.4529370825        4.0923387802       -3.0077126144
 H        -4.5761618703       -0.1665965733        0.2495977836
 H        -4.8040089805        0.1725866811       -1.4167676689
 H        -0.3541216368        1.6068149514       -0.0425193886
 H        -0.7984211110        3.2438720687       -0.5367483842
 H        -0.7221113698        2.1211713505       -1.7792146955
 H        -2.5419145168        3.1772858717        1.1147501768
 H        -4.1413531430        2.6592231368        0.6150378904
 H        -3.0840006150        1.4016095065        1.4292921086
 H        -3.5802410106       -2.1214031813       -1.8371885970
 H        -5.0134831015       -2.2590318447       -0.7624969262
 H        -1.5510441661       -3.2141950465       -3.3016346153
 H        -0.1900184970       -2.0771959925       -2.9011323758
 H        -0.9517239350       -5.1923392469        0.6762129890
 H        -2.5166902409       -4.8646929579        1.3306728061
 H        -1.4043108617       -3.6450001446        1.6854809934
 H        -2.5511842520       -4.5948944744       -2.2729213130
 H        -2.5090468893       -5.6236804548       -0.7695398444
 H        -4.0048158637       -4.7357329696       -1.0357342404
 H         1.3641675658       -3.6515158666       -2.3747381503
 H         0.2979866499       -4.9904305254       -1.9991369640
 H        -0.4961425692       -1.5362781838       -6.3981210899
 H        -0.7238701418       -1.1975041520       -4.7668725357
 H         1.5801226985       -4.8820563237       -7.5287080665
 H         1.1385970353       -5.9681879819       -6.3769119708
 H         2.4139548406       -4.8502134054       -5.8620802143
 H        -1.2400353688       -3.4322578949       -6.6386770907
 H        -1.1576083925       -5.0988460809       -6.1194376302
 H        -1.5924255334       -3.7969893747       -4.9706540400
 H         0.0104512047        0.7510416535       -5.7929897719
 H         1.3637241387       -0.0686790310       -6.5597741495
 H         5.5255282451       -1.5195170071       -3.8166544567
 H         5.4231230453        0.1420332169       -3.5124834698
 H         4.5810737269        1.2691908379       -5.2063218423
 H         3.1075482329        2.5331266920       -5.3239641655
 H         3.3223826259        1.0875323991       -6.3525253140
 H         3.9251972347        2.2027582447       -3.0323223841
 H         2.2063652049        2.1924336454       -2.5085386451
 H         3.2950763323        0.9821366094       -2.0859124454
 H         5.1179489256       -2.0681388192       -1.4576965352
 H         6.6016750912       -1.2362168969       -1.6840301490
 H         1.7849572937       -0.7426908236        2.4294666119
 H         3.2152308276       -0.2986796217        3.1611705482
 H         6.6850736679       -1.3180167319        0.9657666824
 H         5.4307131470       -2.4757958768        1.3930432712
 H         5.7475719632       -1.1529660742        2.5602727417
 H         4.3457653506        1.7266284171        1.2952597808
 H         5.3342157029        1.1085163619        2.7103466578
 H         5.9790356176        1.7186230298        1.0412561102
 H         1.4514620213        1.4646089270        1.1585650714
 H         2.4602900612        2.1010602260        2.7160656246
 H         1.9148035456        2.9590910784        6.9693733290
 H         0.2012106884        2.6105453431        7.2922529750
 H         1.9603340669        3.5858534808        4.5706922260
 H         0.2407597741        4.0404175469        4.7135149756
 H         0.8430463638        3.6980194764        3.0874202897
 H        -1.5679364604        2.7308120760        4.0580080625
 H        -1.5053253748        1.0124498460        4.6566348320
 H        -1.2082144103        2.3380730600        5.8349932392
 H         0.6919187811        0.6198234172        8.5244864435
 H         2.2564026319        0.9692283365        8.6573526745
 H        -2.8277335050        0.9163035627        9.1059176234
 H        -2.8174058736        1.1531904113       10.8269109507
 H        -3.6470970610        2.3062441192        9.6635287926
 H        -0.9178401812        1.4086228943       12.4694891247
 H         0.7037665945        1.0524535038       11.8202992160
 H        -0.7943147746        0.2604008750       11.1404938675
 H        -0.9716970873        3.4990449006       12.3797901523
 H         0.2882182210        4.2513483582       11.5442596294
 H        -1.1531525259        4.3392179965       10.8558895144
 Na        0.8237554330       -0.6225022619       -1.1436400909
