155

 C        -7.2710398619        2.5967251262       -6.4779047496
 C        -5.9228868194        2.2548865741       -5.7492744448
 C        -6.0545245172        1.8022327741       -4.2494656410
 C        -4.7631998485        1.5159020688       -3.5464730691
 C        -3.7225262560        2.6934954730       -3.7724618185
 C        -6.9228324538        2.7976054029       -3.4556404841
 C        -6.7761845363        0.3804805862       -4.4770127006
 O        -4.9484446017        1.8870491943       -6.3584177821
 O        -4.4066239664        0.4263814870       -3.1101499370
 C        -2.5983313100        2.8390709785       -2.7083334360
 C        -3.1114953926        3.0006590299       -1.2135255395
 C        -2.6303030407        1.9795580416       -0.0304165569
 C        -2.8762149811        0.4526846540       -0.6858579805
 C        -4.2254937920       -0.3818145916       -0.2000321513
 O        -3.8923319959        3.8991725403       -1.0333853316
 O        -1.9770037350       -0.0815410760       -1.3055879518
 C        -1.1038700612        2.3105408243        0.1924362093
 C        -3.4690199142        2.2336369124        1.1695296666
 C        -4.3726730091       -1.7864348235       -0.8196303768
 C        -3.6346238171       -2.7262567476        0.1446926285
 C        -2.6927636682       -3.8968382809       -0.4477805902
 C        -1.6313496518       -3.2371865720       -1.3769766240
 C        -1.3042418280       -3.9098782226       -2.7807510796
 C        -1.8798275036       -4.4992567889        0.7603773363
 C        -3.5548028879       -4.9404193448       -1.1658560538
 O        -3.7369271057       -2.7121369328        1.4181766599
 O        -1.0998780022       -2.1932351452       -1.1192000286
 C         0.1462924362       -4.3192185488       -3.0672098143
 C         0.4404429229       -5.1002617857       -4.3220003326
 C         0.4824390962       -4.2819132378       -5.8291895647
 C         0.8091197952       -2.7512291328       -5.7075046446
 C        -0.0688937363       -1.5887637246       -6.1351169762
 O         0.6388920993       -6.2789577592       -4.2624017349
 O         1.8394350295       -2.4593106640       -5.1098468284
 C         1.4877805662       -5.2564506334       -6.5456786218
 C        -0.9909429720       -4.4329456399       -6.3842200794
 C         0.7209393917       -0.2816971352       -6.0396643127
 C         1.1721022126        0.2418656433       -4.6991983047
 C         2.6309295064        0.4012734515       -4.0680348928
 C         2.8959771951       -0.8402472671       -3.1860847118
 C         4.2068433310       -1.5838554425       -3.2448525080
 C         3.7300004130        0.2379332683       -5.2681814200
 C         2.6032261800        1.7677959678       -3.4266420651
 O         0.2111701618        0.5485943475       -3.9387232422
 O         2.1404297130       -1.3025943446       -2.3060217724
 C         4.8491318664       -1.7773568440       -1.8067198081
 C         5.1240782868       -0.4562662201       -1.0367892327
 C         4.6645224443       -0.4803378498        0.6115118491
 C         3.1904711521       -0.0633518532        0.4343052895
 C         2.1921620234       -0.3008472227        1.5346951044
 O         5.6202844274        0.4598616954       -1.5846115486
 O         2.7928333828        0.5532233183       -0.5546364393
 C         4.6985532776       -1.9449079212        1.1596719162
 C         5.8455423898        0.3748138113        1.1935904658
 C         2.1022619612        0.7942938567        2.6554655183
 C         0.5869017147        0.9314341068        3.2585487543
 C         0.3647816006        1.9191360093        4.4970989110
 C         1.5543659322        1.6811118409        5.6426427694
 C         1.5845264717        2.6439821448        6.8100544157
 C         0.5712778235        3.3532809572        4.0889249350
 C        -0.8732361395        1.6413335788        5.2384100648
 O        -0.3083557920        0.3193127776        2.7021289983
 O         2.2250962175        0.6823189489        5.6294881631
 C         2.1223632135        2.0915275499        8.1460326698
 C         2.0784087000        3.1047087286        9.2852595361
 C         1.1312053082        2.6711497402       10.4231502570
 C        -0.2803309494        2.4149417310        9.8994794147
 C        -1.4584162626        2.2583145520       10.8875035902
 O         2.8269245742        4.0775014362        9.4180731177
 O        -0.5439279222        2.5043405299        8.7436590358
 C         1.8346118279        1.3782054193       10.8176452385
 C         1.0514002408        3.6844532111       11.5799116997
 H        -7.3330122698        3.5738708346       -7.0382259357
 H        -7.2856501086        1.7506124302       -7.1638185475
 H        -8.0362569817        2.4506145872       -5.8563382911
 H        -3.4141328246        2.8886512004       -4.8587668433
 H        -4.4377643121        3.5849528534       -3.6642289465
 H        -7.8769706264        2.5043702745       -3.3852479475
 H        -6.8792761143        3.8427446162       -3.8459374236
 H        -6.5649438671        2.8040105861       -2.4229022837
 H        -7.8247353723        0.6077304584       -4.8303616631
 H        -6.2414295815        0.0217667342       -5.3670269343
 H        -6.7361233372       -0.3017972658       -3.6144115008
 H        -1.8541645705        2.0371520139       -2.7548877777
 H        -2.2145846146        3.8403895619       -2.9449091808
 H        -4.0958114452       -0.5557554489        0.8751111511
 H        -5.0970096449        0.1946830792       -0.2362489850
 H        -0.6472901652        1.4547174872        0.6420076152
 H        -1.0250906168        3.0826477625        0.9322302501
 H        -0.6068139595        2.4783462994       -0.7698974255
 H        -3.5216297919        3.3746869984        1.2092509064
 H        -4.4470398362        1.8039867744        1.0681154754
 H        -2.8900230247        1.8924980041        2.0593685699
 H        -3.9830861813       -1.8535632089       -1.8545005578
 H        -5.4928297957       -2.0713314370       -0.9405805791
 H        -1.9881109767       -4.7627734331       -2.9874822629
 H        -1.6541879543       -3.1983948078       -3.6208197730
 H        -1.3631688341       -5.5171322403        0.5475910399
 H        -2.4820985387       -4.5661536038        1.6438586153
 H        -0.9853897139       -3.9667885930        0.9370898719
 H        -4.3860956411       -4.5268622897       -1.7798156022
 H        -3.1566748947       -5.9018948223       -1.6866720913
 H        -4.0592766777       -5.3910203733       -0.2746825480
 H         0.7584557296       -3.3935154411       -3.0127741704
 H         0.4965438645       -4.8241087665       -2.1418879336
 H        -0.2931159341       -1.6011817755       -7.1351283803
 H        -0.9230375524       -1.6478321114       -5.4219869715
 H         1.6065917019       -4.9186786216       -7.5641925482
 H         1.1581603281       -6.2723852496       -6.3681891241
 H         2.4956939436       -5.3094859059       -6.1860354229
 H        -1.0138427858       -4.0220183723       -7.4204737406
 H        -1.1840330124       -5.5019513125       -6.4207224827
 H        -1.8687995790       -3.9614903401       -5.9040087080
 H         0.1003370437        0.6051398397       -6.5245818835
 H         1.6278568759       -0.3642790578       -6.6725241635
 H         3.8911056564       -2.5254834281       -3.6071112332
 H         5.1294138345       -1.1546217537       -3.7739907290
 H         4.6872571205        0.6944084000       -5.2452071383
 H         3.5663803795        0.9510233944       -6.0319236155
 H         3.6842982222       -0.6864926013       -5.8017708980
 H         1.5742458960        2.0546308677       -3.2736604550
 H         3.1958542845        1.8568619007       -2.5158499544
 H         2.9534409749        2.4037815782       -4.1319833139
 H         4.1420854663       -2.2515536926       -1.1181917277
 H         5.9223241143       -2.1419160819       -1.9765800934
 H         1.2146451889       -0.2544427896        1.0877950444
 H         2.3822685184       -1.2158711572        2.0534445172
 H         5.6946153531       -2.3909174690        0.6646748625
 H         3.8385084644       -2.5387283094        0.7112450090
 H         4.6934445677       -1.8744209788        2.2460659411
 H         5.8966410827        1.2027304174        0.5443021577
 H         5.2426507060        0.7897455685        2.0577588167
 H         6.7672864975       -0.1370016777        1.4254970454
 H         2.4017069836        1.7539412643        2.2358386703
 H         2.8231242450        0.6534456776        3.4572347673
 H         2.0346589384        3.5893670898        6.5706728047
 H         0.5829294192        3.0075993857        6.9429208602
 H         1.5962254898        3.6669427835        3.8654625108
 H         0.1632136228        4.0705597733        4.9024159335
 H         0.1309632453        3.6057795021        3.1371705254
 H        -1.7556009839        1.5064198907        4.6452772646
 H        -0.6040100253        0.7064862037        5.8516107045
 H        -1.1328849101        2.4732940413        5.9089278856
 H         1.3273445634        1.4184716768        8.4162605652
 H         3.1052213400        1.6726945670        7.8477731614
 H        -1.3760442364        3.1053382945       11.5141135261
 H        -2.4015561371        2.2795236823       10.3491930700
 H        -1.3828472512        1.4574301795       11.5465179602
 H         1.2589167729        0.8814726503       11.5610993033
 H         2.7656707040        1.4810608586       11.3437183914
 H         1.9740518135        0.7229742815       10.0018102005
 H         0.7411979118        3.2559415063       12.5652945507
 H         1.8249304745        4.3471912648       11.8836534012
 H         0.2664742821        4.4312999139       11.5268506316
 Na        0.4239243448       -0.1720029737       -1.4256388871
