155

 C        -7.3979424509        3.1432385823       -6.2052543635
 C        -6.1216149856        2.7871759239       -5.4171448515
 C        -6.2934216195        2.1459408823       -4.0708465363
 C        -4.8556390566        1.7420702977       -3.4783498476
 C        -3.6150717357        2.7011745873       -3.6253341921
 C        -7.1380102625        2.8265141525       -2.9623153372
 C        -7.2136752047        0.8444939247       -4.4100790474
 O        -5.0691499382        3.0162297397       -5.8973645590
 O        -4.7094124936        0.5818903158       -3.0693058262
 C        -2.6005576197        2.3264122437       -2.5116087736
 C        -3.2105951582        2.8384761835       -1.1038685648
 C        -2.6460830068        2.2403506447        0.2787426432
 C        -2.5320651903        0.7156446762        0.1467942700
 C        -3.9347109495       -0.1305043930        0.2752322067
 O        -4.2903971361        3.4317722830       -1.1202621586
 O        -1.4276232618        0.2610806133       -0.1955235989
 C        -1.1069640608        2.8313685625        0.5716446880
 C        -3.8523607862        2.5615441394        1.2746635322
 C        -3.9169307552       -1.5171834941       -0.4558241815
 C        -3.3130906180       -2.5688785624        0.3389257416
 C        -2.7662325156       -3.7775024653       -0.5354062431
 C        -1.7099493856       -3.3836088759       -1.6247553742
 C        -1.4873924369       -4.2062336023       -2.9158173425
 C        -2.1202884459       -4.7631997735        0.4406699776
 C        -3.8772410708       -4.6244087007       -1.1309548269
 O        -3.3799775828       -2.6386501108        1.5728954776
 O        -0.9059355867       -2.4075093426       -1.3608654767
 C         0.0402660132       -4.6385002687       -3.0790336104
 C         0.1158371864       -5.3555189011       -4.4968688376
 C         0.1889493178       -4.5094465345       -6.0779984745
 C         0.7598467070       -3.1333687427       -5.9372981274
 C         0.0150417736       -1.8505342485       -6.3856090119
 O         0.0625266252       -6.5214409030       -4.5800963916
 O         1.8216772668       -3.1428626190       -5.3145845209
 C         0.8716363620       -5.6129199759       -6.9454594455
 C        -1.4176586315       -4.4045332311       -6.6134292851
 C         0.8507751471       -0.5503961178       -6.4220008616
 C         1.1146325333       -0.0649801523       -4.9493961975
 C         2.6666900291        0.2394221560       -4.5091696326
 C         3.1222228531       -0.9831423820       -3.5159431330
 C         4.5857158591       -1.4495331819       -3.4914440404
 C         3.6246006316        0.3539418394       -5.6890186310
 C         2.7843358044        1.5148749143       -3.6650911435
 O         0.1982610220        0.0269097853       -4.1789304577
 O         2.2421599060       -1.3862913709       -2.7439647282
 C         5.0267298451       -1.8328417736       -2.0546162102
 C         4.7890537801       -0.5889302741       -1.2321456391
 C         4.1588702331       -0.8327290658        0.2123697894
 C         2.6131804663       -0.4081305739        0.3805173736
 C         1.9825549949       -0.4625193645        1.7953177523
 O         5.0939284888        0.4891284056       -1.7134756164
 O         2.0758348172        0.1338787002       -0.6119959437
 C         4.2102153391       -2.3143451520        0.6266638638
 C         4.9112052678       -0.0967350333        1.1987889592
 C         1.9481970501        0.9625156332        2.4402379558
 C         0.6374993021        1.1098002520        3.3598863639
 C         0.5929506316        1.9321437578        4.7118282408
 C         1.9004074563        1.7584018830        5.6111259903
 C         1.8567114431        2.7938990444        6.6942083563
 C         0.5719388362        3.4520199476        4.2946040289
 C        -0.6562531304        1.5081329735        5.4573743078
 O        -0.4733502953        0.7780068064        2.9377618761
 O         2.8632126078        1.0182260228        5.4006845050
 C         2.2862433422        2.2869658790        8.1100868331
 C         2.3346963832        3.4024636037        9.1251423337
 C         2.0331373978        2.8724238243       10.5524255779
 C         0.3725563660        2.5366497989       10.4259984558
 C        -0.4828743919        2.3210858790       11.6649989972
 O         2.7436384305        4.5258237339        8.7826328610
 O        -0.1531863264        2.4821624660        9.3411542326
 C         2.9721842048        1.5957632648       10.7838159661
 C         2.2246456660        3.9144022151       11.5974822469
 H        -7.8870247447        2.4312962753       -6.9014357381
 H        -8.0900171410        3.6415882862       -5.5387762934
 H        -6.9520143879        3.9599835111       -6.7317853912
 H        -3.4019681121        2.4632102379       -4.6504308850
 H        -3.8876312973        3.6941567991       -3.4181779190
 H        -8.1341791060        2.9132695353       -3.2182796339
 H        -6.7679712007        3.8513144397       -2.9253674666
 H        -6.9766374300        2.4144954952       -2.0000286912
 H        -8.2996290827        1.0984414928       -4.2867145389
 H        -7.0092921756        0.5291461889       -5.5404501654
 H        -6.8174247612        0.0773669133       -3.7337957937
 H        -2.3330589081        1.2971522533       -2.3657398480
 H        -1.6522418323        2.8159195789       -2.6532585818
 H        -4.1251573549       -0.2994911148        1.2708489017
 H        -4.6246763756        0.5378968682       -0.2190918329
 H        -0.7745299833        2.3435562118        1.4734050223
 H        -1.2133260897        3.9153844877        0.7049952732
 H        -0.4123485940        2.6443079325       -0.2333310747
 H        -3.9288936730        3.5604703190        1.7316287467
 H        -4.8517135896        2.4284519437        0.7964288909
 H        -3.8264964203        1.6742743789        1.9776826695
 H        -3.6144780081       -1.3543219742       -1.5457829261
 H        -4.9632704581       -1.8369583536       -0.4750616485
 H        -2.0138083561       -5.1129877771       -2.9416979893
 H        -1.7045293475       -3.5107172261       -3.7786726774
 H        -1.9420477233       -5.8329485381        0.1277821548
 H        -2.8124378073       -4.8344962908        1.3509364344
 H        -1.2022550829       -4.2840783564        0.9582898704
 H        -4.4955099650       -4.0510452312       -1.8860762485
 H        -3.6373245261       -5.5015243239       -1.7113759403
 H        -4.5461132574       -5.1315098666       -0.3517928755
 H         0.7084085681       -3.6909868437       -2.9686331042
 H         0.2388228970       -5.3835021176       -2.4231387400
 H        -0.3018608961       -2.0588340094       -7.5377799499
 H        -0.9166179821       -1.8218809435       -5.8174728757
 H         0.9156532610       -5.2754685925       -7.9878990850
 H         0.1752350640       -6.4817182279       -6.9805807034
 H         1.9315400434       -5.9391695017       -6.7164162159
 H        -1.5462841879       -3.8881044016       -7.5835962753
 H        -1.9763344778       -5.3412893263       -6.7190646480
 H        -1.9505313217       -3.8089235284       -5.8432733238
 H         0.4281400438        0.2302830361       -6.9491704895
 H         1.8523662736       -0.7077890197       -6.8198816132
 H         4.9055920172       -2.3271774897       -4.0458293542
 H         5.3726727453       -0.5493763373       -3.7220226666
 H         4.7034291528        0.5288356232       -5.5295708754
 H         3.1175551758        0.9320779877       -6.3402496429
 H         3.8872050773       -0.4967715884       -6.3332770668
 H         1.8736428333        1.9653798907       -3.8192622133
 H         2.9057732070        1.3853781864       -2.5905145562
 H         3.6406545857        2.1180849826       -4.0628851763
 H         4.5952028757       -2.8088437127       -1.6759900391
 H         6.0402863730       -1.9652441353       -2.0433709475
 H         0.9800604861       -0.8564378014        1.8047832289
 H         2.4763731425       -1.0572577655        2.5408470418
 H         5.0604350971       -2.8430972241        0.2985165901
 H         3.3962793704       -2.8841519855        0.1916268649
 H         3.8383459994       -2.1989290639        1.6581478254
 H         5.1183141074        0.9695384218        0.8002883991
 H         4.5152471436       -0.1146715073        2.1748337551
 H         5.7942623252       -0.7064025570        1.0297657465
 H         1.8390982050        1.6850511139        1.6915245015
 H         2.7829573825        1.0811521572        3.0587006318
 H         2.5124751604        3.6216094360        6.5860827249
 H         0.8596620756        3.2754657160        6.7452556868
 H         1.5732170794        3.8094434997        3.9731239662
 H         0.3669254709        4.0971109048        5.1022641292
 H        -0.2318617931        3.8248558639        3.6723672435
 H        -1.5748863791        1.6481870195        4.8469111620
 H        -0.5842980596        0.4456496422        5.7270225828
 H        -0.7044869567        1.8928051607        6.4762909766
 H         1.6659276599        1.4614577125        8.5802395820
 H         3.3240895739        1.8293920683        8.0077938885
 H        -1.5634425013        2.3108194371       11.4004586303
 H        -0.1459892533        1.4305919360       12.1295073577
 H        -0.2432227139        3.0253340003       12.4686669738
 H         3.5212111464        1.6599812384       11.7048617456
 H         3.7700456265        1.6736418601        9.9905760585
 H         2.5180262664        0.6156732379       10.8962286811
 H         2.0825134918        3.6132533788       12.6907166636
 H         3.2460163271        4.2871246116       11.6056745890
 H         1.8726685659        4.9269351769       11.6216965347
 Na        0.1570515489       -0.7202344466       -1.6939849621
