155

 C         9.7393694383       -4.2164473734        5.8104616844
 C         8.8069464126       -3.5291562229        4.7235513505
 C         7.9791516376       -4.3472107302        3.7877201367
 C         6.5122583060       -4.6679410590        4.2758358239
 C         5.6768476102       -3.6237715772        4.9141750174
 C         7.9737498513       -3.6502122191        2.4076640614
 C         8.6943920240       -5.6654205084        3.4721649012
 O         8.5316080476       -2.3516451799        4.8257651243
 O         6.0332550888       -5.8063691696        4.1365335367
 C         4.2505343031       -4.0511230444        5.4837163086
 C         3.0865038967       -3.9143770274        4.4834868724
 C         1.6202176096       -3.8473782317        5.1396166041
 C         1.2707922555       -2.3673248101        5.0445828067
 C         0.8659786796       -1.5510918681        3.7517688312
 O         3.2168986788       -3.6629328124        3.3226027629
 O         1.2595359195       -1.7271943887        6.1011404732
 C         0.7387925709       -4.8280846947        4.2812344785
 C         1.3225446465       -4.4318009468        6.5913487106
 C         0.3740580457       -0.1956623634        4.1878992763
 C        -0.4651423178        0.5390162265        3.1399443916
 C        -1.2014749657        1.8798622076        3.6616570272
 C        -0.4008474747        3.0544135533        2.9220240695
 C         0.1844123939        4.3825474975        3.6822658417
 C        -2.6313973002        1.8963041550        3.1840150408
 C        -1.2517096321        2.0528908636        5.1630682148
 O        -0.4732937841        0.2191272490        1.9539269596
 O        -0.3650941375        3.1462723378        1.7045714646
 C         1.6233517786        4.5999478682        3.2673392831
 C         2.4376729359        3.3585497214        3.1755782358
 C         3.7980616789        3.4224063079        2.5160908607
 C         3.6725682831        2.5498108246        1.1674762124
 C         3.6914902540        0.9955451991        1.0228350212
 O         2.0579505628        2.2239011939        3.4225602114
 O         3.5661385221        3.1280888156        0.0902356859
 C         4.4287961463        4.8428047371        2.1362110677
 C         4.8125640950        2.7111185964        3.4271971869
 C         3.6634279984        0.6478792256       -0.5532358856
 C         2.3232963068        1.1449096269       -1.2207830874
 C         2.2907848264        1.4844863474       -2.7722642237
 C         0.8427349569        1.4770893986       -3.2534103086
 C         0.3718371330        2.5897294877       -4.1213334381
 C         2.9456055228        2.8964577664       -3.0566099976
 C         3.0594033100        0.4058434820       -3.5498541701
 O         1.3069080605        1.1382694627       -0.5765454431
 O         0.0595447360        0.7149371393       -2.7780791156
 C        -1.0834936088        2.5426267497       -4.0786467805
 C        -1.5525113596        2.7960325140       -2.6867210043
 C        -3.0772089834        2.3086017339       -2.3779680828
 C        -3.1266816559        0.7747541559       -1.8978786152
 C        -3.7659275294       -0.3594427663       -2.6278720464
 O        -0.8188060293        3.3396235700       -1.8201955273
 O        -2.5257047131        0.5495616496       -0.8362700962
 C        -3.6121171702        3.0712327780       -1.1619057392
 C        -3.9438095580        2.5662396496       -3.5919985883
 C        -5.2827365492       -0.6085760118       -2.3650032455
 C        -5.7106690726       -2.0033728299       -2.6700206004
 C        -7.3200346573       -2.1708150459       -2.7735142787
 C        -7.9900767636       -1.0898064474       -3.7607778827
 C        -8.0022739832       -1.3749389129       -5.2646164060
 C        -7.6766066336       -3.6291937498       -3.1287103699
 C        -7.9319329203       -1.7961334995       -1.3693485202
 O        -4.9793234623       -2.9226124700       -2.8042684535
 O        -8.4221125948       -0.0475515481       -3.3088110235
 C        -8.1726446396       -0.1135843915       -6.0808596726
 C        -7.6356141013       -0.1732483435       -7.5241402349
 C        -6.1883107905        0.2620011818       -7.8818793067
 C        -6.1476711903        1.8791687314       -7.6780998292
 C        -6.8379748729        2.7126473192       -8.7606472155
 O        -8.4331923639       -0.5093465417       -8.4064028940
 O        -5.6283408512        2.5097477486       -6.8045550210
 C        -5.1000144106       -0.4162515950       -6.9987299172
 C        -6.0022178060        0.0414295590       -9.4539632553
 H         9.1743093438       -4.7372972061        6.5330364722
 H        10.5702020182       -4.8203651530        5.3505049176
 H        10.3025320709       -3.3797778027        6.2351657656
 H         6.1534631315       -3.2338257850        5.8311569983
 H         5.5648327891       -2.8285255252        4.2602015257
 H         8.9991803878       -3.7131151596        2.1079508259
 H         7.6904264950       -2.5943373375        2.5004800865
 H         7.4016340857       -4.1921954426        1.7430368112
 H         8.5034231591       -6.3650567579        4.3916321670
 H         8.2868526009       -6.0448251612        2.5230282600
 H         9.7102222240       -5.4185719149        3.3847531887
 H         4.2792036599       -5.1528335293        5.8859845769
 H         4.0347226617       -3.3953579298        6.2841472316
 H         1.7193838760       -1.4497503203        3.0509932865
 H         0.1582811504       -2.2584012325        3.2451781195
 H         1.1858848556       -5.8415278786        4.1019199242
 H         0.4127357964       -4.5296456668        3.3295271824
 H        -0.2405805037       -4.8838195563        4.7797057132
 H         2.0062433582       -4.0670114408        7.3777939585
 H         0.3614160823       -4.0556582508        6.9964441715
 H         1.3349484815       -5.5402480265        6.5900264339
 H         1.2285516681        0.4822049009        4.2888980477
 H        -0.2745123539       -0.2669057295        5.0894274999
 H        -0.3872238846        5.2516488808        3.2421534473
 H         0.0827796807        4.3013833448        4.7350880231
 H        -3.0292413315        2.8470334447        3.3635871499
 H        -3.2347139268        1.0963914418        3.6180642808
 H        -2.6548776101        1.7068164753        2.1109409352
 H        -1.8594694306        1.3745323426        5.7243216003
 H        -0.2595162081        2.1166856434        5.5767071577
 H        -1.7241371299        3.0111093598        5.3634231347
 H         1.7326106959        5.1927124518        2.3125592191
 H         2.0758487961        5.2557300234        4.0796514680
 H         4.5629223363        0.4632058308        1.5350620090
 H         2.7743204896        0.6335094478        1.4922615198
 H         4.5702377500        5.4446573661        3.0419992835
 H         3.7923720750        5.3172640085        1.3904383913
 H         5.3511252731        4.5843767390        1.6533926221
 H         5.7501745443        2.6450865290        2.9249585409
 H         4.9594682842        3.1804989725        4.4060145218
 H         4.4477413702        1.6969827410        3.7174856794
 H         3.9090449590       -0.4142751975       -0.4956913351
 H         4.4575613637        1.2322903572       -0.9387570867
 H         0.7114906071        3.5337445731       -3.6998349109
 H         0.7318338314        2.5168480550       -5.1121055882
 H         4.0054747701        2.9754365455       -2.7368152453
 H         2.5062341859        3.6655810674       -2.4710480866
 H         2.9731009509        3.0613824852       -4.1483131842
 H         4.1306252571        0.3668328277       -3.3140994598
 H         2.4681396291       -0.4768628823       -3.4903336247
 H         3.0730097925        0.6486009811       -4.6009844275
 H        -1.5564477669        3.3065064454       -4.7120060898
 H        -1.4698318607        1.5363031993       -4.3772494919
 H        -3.5164122472       -0.2666373742       -3.6736699479
 H        -3.1411211160       -1.2200597449       -2.2717967782
 H        -3.2398001689        2.6923853226       -0.2366099979
 H        -4.6525520237        3.1874555991       -1.2050201560
 H        -3.2046215446        4.0725199259       -1.0760886570
 H        -4.7940442975        2.0006298651       -3.4945561675
 H        -4.1189702947        3.6938860832       -3.8773115808
 H        -3.4048667063        2.2665750813       -4.4537469239
 H        -5.9347341709        0.2059178198       -2.6515741104
 H        -5.3009867853       -0.5815653076       -1.2769737967
 H        -7.0980935474       -1.9067136684       -5.6410457365
 H        -8.8287804489       -2.0595590456       -5.4742424476
 H        -7.7593265442       -4.3217074551       -2.3330009271
 H        -7.0781047619       -4.0940592393       -3.8609216369
 H        -8.6512026247       -3.7050633263       -3.5219827360
 H        -9.0427711607       -1.7095203304       -1.3399627808
 H        -7.5803447954       -2.4054111194       -0.5894409289
 H        -7.6819572024       -0.7244014851       -1.2444804219
 H        -9.2151682167        0.2164519730       -6.1399875805
 H        -7.6034111077        0.7228655251       -5.6912151319
 H        -7.6109061313        2.0925099943       -9.2414611715
 H        -7.3258186549        3.6062250984       -8.3794469968
 H        -6.0649104003        2.9929759674       -9.4363549310
 H        -5.3870634964       -1.2673488312       -6.4544097122
 H        -4.5670637812        0.2698223897       -6.3783244603
 H        -4.3196647643       -0.7355998157       -7.6869301065
 H        -5.0055874287        0.3947066997       -9.7165372384
 H        -5.9820894039       -0.9782585287       -9.7700149199
 H        -6.7530645883        0.6084269094      -10.0501546339
 Na       -0.7432532699        1.7804779785       -0.1146060799
