155

 C         9.7672676804       -4.5055439303        5.6220276458
 C         8.8182846807       -3.7012562193        4.7071235619
 C         7.9353224279       -4.4827046482        3.7061996713
 C         6.4633131197       -4.8766448652        4.2214355578
 C         5.6903859617       -3.7433906350        4.7823127860
 C         7.6556668518       -3.4852995689        2.5408240666
 C         8.5315497881       -5.7935012237        3.2026836877
 O         8.6118515297       -2.5274652226        4.9426216882
 O         5.9954433916       -5.9494778230        4.0321000445
 C         4.3893000546       -4.1640160176        5.4763727990
 C         3.1635593344       -3.6787312719        4.6377926789
 C         1.5871236519       -3.6377059071        5.1550567088
 C         1.1962331401       -2.1960329999        5.2071640510
 C         0.8617658601       -1.5265544644        3.8009120525
 O         3.3581369399       -3.6632282622        3.4371051841
 O         1.1393792317       -1.6153247149        6.2276715073
 C         0.7117747795       -4.4096910313        4.0690481655
 C         1.5820006306       -4.2509278309        6.5842488302
 C         0.4953606264       -0.1033983271        4.1229352477
 C        -0.4970416115        0.6199919859        3.0441657826
 C        -1.1619402974        1.9019897168        3.4831462233
 C        -0.3122694795        3.1370209885        3.0191847078
 C         0.3825198186        4.1009775715        3.9833247420
 C        -2.5344072859        2.1856233090        2.7706849627
 C        -1.3703167060        1.9183663853        4.9915244977
 O        -0.6600951451        0.1926654124        1.9213958826
 O        -0.1375667706        3.3874986897        1.8339905206
 C         1.6435152624        4.6125477374        3.3475490610
 C         2.4497942755        3.3102475164        3.0203163470
 C         3.7908297659        3.3906222111        2.2827330979
 C         3.7775973143        2.5760373390        0.8943238746
 C         3.7707149005        0.9991364931        0.9361797461
 O         2.1528579965        2.3078208631        3.6512596351
 O         3.7817308732        3.2302245222       -0.1036993215
 C         4.0107699301        4.8393817536        1.8156683945
 C         5.1008329419        2.7952816553        3.0932627239
 C         3.9409573241        0.3845678491       -0.4721781202
 C         2.5651367482        0.7121341836       -1.2100593570
 C         2.4988757864        1.4262384140       -2.7197611998
 C         1.0101726889        1.5469987441       -3.0045841505
 C         0.3981436719        2.5870919334       -3.9765754522
 C         3.2338973648        2.7593456853       -2.7382540561
 C         3.1438897645        0.5161744977       -3.7188653234
 O         1.6812377268        1.0102078143       -0.4642053368
 O         0.2576369651        0.7165534960       -2.4704958649
 C        -1.1768098002        2.6701533452       -4.1352199443
 C        -1.8646019264        2.8554738352       -2.7077658653
 C        -3.2528349330        2.2891581966       -2.4780905186
 C        -3.0751300402        0.7986969563       -2.0209946345
 C        -3.9471441602       -0.2210793574       -2.8487295291
 O        -1.2533791004        3.3014611570       -1.8021220394
 O        -2.3084037809        0.4084550835       -1.1773824152
 C        -3.8434972375        3.0630092978       -1.3735386204
 C        -4.1823617521        2.5116217251       -3.7327879198
 C        -5.2712796390       -0.4671303660       -2.1415072323
 C        -5.8631810969       -1.8419692929       -2.5460838534
 C        -7.3287170509       -2.0395526358       -2.6341969947
 C        -7.8847296162       -1.0623902419       -3.7533911272
 C        -7.9404835950       -1.4510084982       -5.2700637403
 C        -7.6274144880       -3.4578199532       -3.0698002546
 C        -8.0534172233       -1.8381999788       -1.2998824715
 O        -5.0656919121       -2.8065161750       -2.6835724882
 O        -8.2010846699        0.0334750840       -3.3375064820
 C        -8.3943284877       -0.1820404794       -6.0264756549
 C        -7.8061409518       -0.2192862262       -7.4775654810
 C        -6.3817326291        0.2637167319       -7.8317349457
 C        -6.4434441599        1.8664898432       -7.5491077808
 C        -6.8284123307        2.8474573955       -8.6021935208
 O        -8.4920822593       -0.6885114895       -8.3356429126
 O        -6.0330783864        2.2879432139       -6.4532186725
 C        -5.3432892428       -0.2212808135       -6.8450783879
 C        -6.0594401650       -0.1072686363       -9.3292422760
 H         8.9519152013       -4.7665964448        6.3664258110
 H        10.1658933414       -5.3898830586        5.1553925823
 H        10.5729131674       -3.9919423759        6.0965065824
 H         6.2091972760       -3.0684541091        5.4622971486
 H         5.2807501001       -3.1124646227        3.8669038338
 H         8.5432059743       -3.2208625495        1.9549680368
 H         7.2561656178       -2.6175179671        3.0283244645
 H         6.8552399092       -3.9693779163        1.8517067150
 H         8.8562523666       -6.2960893614        4.0499284818
 H         7.7772425572       -6.2053182916        2.5202623756
 H         9.4193369435       -5.5790057102        2.5030982329
 H         4.2114763070       -5.1793136804        5.4010390444
 H         4.3578444353       -3.7424813292        6.5001264731
 H         1.7532795007       -1.7291836656        3.2080786760
 H         0.0681568564       -2.0171892302        3.2646791817
 H         1.1278461898       -5.3703975815        3.8515196602
 H         0.6554137059       -3.9670577639        3.0460941685
 H        -0.3368538961       -4.4186432978        4.3104383192
 H         2.1712526568       -3.6770607617        7.3383456365
 H         0.5634872822       -4.2741504499        6.9962852175
 H         1.9253867325       -5.2869223643        6.5594050311
 H         1.3485950934        0.5688566797        4.2292886277
 H        -0.0822864719       -0.1402648506        4.9963315510
 H        -0.3678243872        4.8563132626        4.1130972010
 H         0.6322949481        3.4482816658        4.8649952098
 H        -2.8480074614        3.2216354617        3.1234013272
 H        -3.2365454207        1.4124641987        2.9448432224
 H        -2.4591479377        2.3624646085        1.6747707923
 H        -1.8619701862        0.9876576784        5.3348704984
 H        -0.4317532454        1.9329384840        5.5465422930
 H        -2.0365918864        2.7536810464        5.2446169028
 H         1.4042960560        5.2038027382        2.4899279852
 H         2.2339541354        5.2738382374        3.9368157479
 H         4.5004746520        0.6386356111        1.6265431471
 H         2.7547594742        0.6892404334        1.2733990501
 H         4.1759514466        5.4450711816        2.6907255258
 H         3.1942842803        5.1412712258        1.1990218682
 H         4.8989547664        4.7231825558        1.2202234477
 H         5.7664606026        2.2769895389        2.3439345437
 H         5.7158589075        3.5085328650        3.6319507150
 H         4.8006173331        2.0479793501        3.8044572974
 H         4.1054247407       -0.6663404288       -0.2333875298
 H         4.8500803542        0.8273138696       -0.9579984900
 H         0.8654188305        3.5480327162       -3.6591370568
 H         0.7872320507        2.4334023452       -5.0401569229
 H         4.2614247102        2.6258204463       -2.4698447028
 H         2.9311378813        3.5604974572       -2.0242667627
 H         3.3547634998        3.0277347229       -3.8076602289
 H         4.1695545350        0.5635603808       -3.4762943419
 H         2.6796430684       -0.4956258459       -3.6417602018
 H         3.1616209335        0.7856450794       -4.7686965361
 H        -1.4930906032        3.4997011613       -4.7792163111
 H        -1.5246709544        1.7611286918       -4.6053489728
 H        -4.1923343510        0.1248710169       -3.8965432293
 H        -3.2831865594       -1.0851039668       -2.9015197846
 H        -3.2440085814        2.9664850406       -0.4817002769
 H        -4.9338581270        2.7896475391       -1.2502722297
 H        -3.8424229165        4.1127504030       -1.5233607897
 H        -5.2861523429        2.3302661400       -3.4035651650
 H        -4.0642770406        3.5250140712       -3.9558400061
 H        -3.9483806188        2.0932942404       -4.7392006351
 H        -5.9916569240        0.3222529433       -2.3379987770
 H        -5.0198822746       -0.3527895800       -1.0703629440
 H        -6.9101052588       -1.6513312914       -5.5711020494
 H        -8.5330986049       -2.3514471900       -5.5589176678
 H        -7.3557412754       -4.2775414021       -2.3751979078
 H        -7.1242887437       -3.7459832317       -4.0235682271
 H        -8.6769678629       -3.6910129693       -3.3123350051
 H        -9.1129109606       -1.9239721338       -1.5029147439
 H        -7.8251820651       -2.7296008745       -0.6329748030
 H        -7.9000489949       -0.8499348092       -0.8366701816
 H        -9.4710545433       -0.1753019888       -6.1332155829
 H        -8.0877523115        0.7603505252       -5.5676783553
 H        -7.2851117107        2.4082501631       -9.5005859782
 H        -7.5257101336        3.5068571629       -8.0625960550
 H        -5.9396293367        3.5250147184       -8.7262287421
 H        -5.2545131639       -1.3458966005       -6.7052030778
 H        -5.6093147034        0.2676493521       -5.8812574805
 H        -4.3122229311        0.0424819322       -7.0920509202
 H        -5.2560528619        0.5843806850       -9.6996811005
 H        -5.5777254586       -1.1371917034       -9.3668267338
 H        -6.9040270671       -0.1731965030       -9.9859501267
 Na       -0.5132135270        1.6665735527        0.0077494347
