155

 C         9.6552733230       -6.2887858093        4.4174343334
 C         8.9567912539       -4.9537946150        4.2706598030
 C         7.7170706856       -4.7839837699        3.1907651337
 C         6.3821562840       -4.8199585784        4.0800868045
 C         5.6024391746       -3.5543809966        4.4759705143
 C         7.8357401686       -3.4636590799        2.4769338459
 C         7.7389277990       -6.0073799814        2.1804836265
 O         9.2869974401       -3.9797570793        4.9302714033
 O         5.8747985742       -5.8759558120        4.3313572874
 C         4.2540055522       -3.9100753250        5.1361107927
 C         3.0303759545       -3.1447484680        4.6668556735
 C         1.5704962105       -3.5161667275        5.0169540410
 C         0.5410598376       -2.1944751138        4.9909002373
 C        -0.1815904196       -1.6795455609        3.6656679027
 O         3.0565757212       -2.1695255504        3.9752357512
 O         0.3134615880       -1.5468380684        5.9887831264
 C         1.0499607400       -4.5205288435        3.9266477550
 C         1.6122845130       -4.0198765605        6.4018386793
 C        -0.8020935655       -0.3460098890        4.0573568084
 C        -0.9471194762        0.5938046358        2.8275204054
 C        -1.3059435891        2.0695332111        2.8986040072
 C         0.0787697527        2.9019300229        2.4720826707
 C         1.1388822354        3.5276471833        3.4310505206
 C        -2.5340949274        2.2977947457        1.9163610348
 C        -1.6896237493        2.5650542770        4.2953191907
 O        -0.7775981600        0.0499531989        1.7104124214
 O         0.2610212116        3.0404177634        1.3194188869
 C         2.2986696851        4.1870604655        2.7087292036
 C         3.6723351334        3.5774083235        2.9473350889
 C         4.8876601948        4.0469763343        2.0601645446
 C         4.6493835548        3.4255455345        0.5900188922
 C         5.0717937362        2.0021024807        0.3745354545
 O         3.9047787154        2.6984610760        3.7226593504
 O         4.2186155274        4.0512027431       -0.3563307199
 C         5.1286330671        5.5159385953        1.8718365740
 C         6.1369764052        3.5320328017        2.5815116023
 C         4.4525053392        1.4712128272       -0.9876953147
 C         2.9719483357        1.3563490082       -1.0759956129
 C         2.5485454697        0.9535729637       -2.5221726572
 C         1.0303484183        1.4188302942       -2.6247529849
 C         0.7135476776        2.9547167134       -2.7448661899
 C         3.3312481189        1.4225362126       -3.7615905748
 C         2.5056081367       -0.6107123940       -2.6316958936
 O         2.1819990078        1.5548089523       -0.1561203938
 O         0.0915049293        0.7321409020       -2.3280773742
 C        -0.7032748773        3.1080232252       -3.3406531275
 C        -1.7960659464        2.7898187214       -2.3012490654
 C        -3.1346444520        2.1849650087       -2.6954228361
 C        -3.3007413576        0.7967134404       -1.9018356578
 C        -4.2331674101       -0.2055114209       -2.6537724525
 O        -1.6152334271        2.9834173560       -1.1136217815
 O        -2.7496929155        0.4866018408       -0.9136860636
 C        -4.2267118578        3.1046350654       -2.0128351847
 C        -3.4778563534        2.1354191178       -4.1965478752
 C        -5.2174402282       -0.9819629237       -1.5737566959
 C        -6.0439912462       -2.0102417768       -2.3777846876
 C        -7.6095822700       -1.9163468164       -2.2905031393
 C        -8.0394489090       -0.9873529691       -3.3426287788
 C        -8.7676628767       -1.3692150053       -4.5951570375
 C        -8.0461286082       -3.3539420895       -2.4663847774
 C        -8.0396757931       -1.4169140403       -0.8639935222
 O        -5.4669948029       -2.8694207959       -3.0199715349
 O        -7.4703341884        0.1054959929       -3.2327091137
 C        -8.8697881722       -0.2482408838       -5.6465226314
 C        -8.1027932458       -0.6070836807       -6.8928284731
 C        -6.8731254433        0.3835952217       -7.2629353829
 C        -7.3533258321        1.8868219767       -7.0528401890
 C        -7.8681536134        2.8459769869       -8.2165749943
 O        -8.3932290302       -1.5098897279       -7.6508885933
 O        -7.1665726655        2.4615065246       -5.9723406718
 C        -5.7386673799        0.0840558756       -6.1618972923
 C        -6.4137846518        0.0522557563       -8.6551832176
 H         8.9967052720       -7.0663689498        4.9372529131
 H         9.7268197849       -6.5762286496        3.4214783732
 H        10.6004487029       -6.2968529026        4.9772697486
 H         6.2213454220       -2.7696327893        5.0048749231
 H         5.4174472307       -3.0236556640        3.5709239082
 H         8.7471942712       -3.4051342899        1.8506721168
 H         7.9275923082       -2.6863026559        3.1833419042
 H         7.0006095837       -3.1504758971        1.8410792065
 H         7.3483144082       -6.8272051316        2.6275704402
 H         6.9463528058       -5.9984678076        1.3949634075
 H         8.7703760920       -6.2161166865        1.7557068185
 H         3.9290422668       -4.9611249591        4.9991653496
 H         4.2822857250       -3.7737546330        6.2530419383
 H         0.4639344260       -1.5356546464        2.8708174308
 H        -0.9407764236       -2.4440410944        3.5346315479
 H         1.7234225347       -5.3253992069        3.7459991050
 H         0.7657859728       -3.9744608947        2.9872195409
 H         0.1765327025       -5.0892706036        4.2347952375
 H         2.1875101004       -3.4263666293        7.0755010222
 H         0.5990154826       -3.9227138308        6.8356797444
 H         1.9598792794       -5.0686353400        6.3011667410
 H        -0.1587638490        0.1656326210        4.7950172725
 H        -1.7927277332       -0.4478874425        4.6168063991
 H         0.5288035897        4.1915992791        4.0821677019
 H         1.5478046549        2.6983840391        3.9842261889
 H        -2.7753087203        3.3459017727        1.6462125999
 H        -3.3868810242        2.0296180949        2.5538198131
 H        -2.6363107137        1.5869764036        1.0854099796
 H        -2.5002300351        1.9392312193        4.5669837960
 H        -0.8205711840        2.4834883616        4.9624568423
 H        -2.0513823858        3.5572458701        4.3304812681
 H         2.1317150163        3.9775343487        1.6560964785
 H         2.2482635657        5.2785802313        2.6826813285
 H         6.1546990777        1.9693353955        0.2377046399
 H         4.8183545926        1.3496489035        1.2112199702
 H         5.4924463995        5.8553274348        2.7908317076
 H         4.1301604175        5.8946174536        1.6547062652
 H         5.7763318535        5.7797622159        1.0256363482
 H         6.9071345036        4.1017567850        2.0560872384
 H         6.2833787361        3.7854613002        3.6462203475
 H         6.4428269338        2.5260288100        2.5847255092
 H         4.9104014447        0.4567690339       -1.1939015654
 H         4.8626760096        1.9638071346       -1.8795837317
 H         0.7456118162        3.2757740262       -1.6672982817
 H         1.5121822082        3.5493144546       -3.2937132980
 H         4.3818203535        1.0789901044       -3.6821265935
 H         3.3940993050        2.5427443454       -3.8533204194
 H         2.8692511986        1.1892230992       -4.6767746789
 H         3.3874810842       -1.2176310605       -2.3375753781
 H         1.7068177465       -1.0975977268       -2.0993618134
 H         2.3507126962       -0.8483612366       -3.6617523602
 H        -0.7922790840        4.1294513035       -3.7055478134
 H        -0.9252984739        2.4434311179       -4.1693948528
 H        -4.7885104376        0.2766449588       -3.4416012779
 H        -3.5530488018       -0.9567813928       -3.0960475450
 H        -3.8700966737        3.5203119536       -1.0852010601
 H        -5.0381694495        2.4448303578       -1.7299536338
 H        -4.5798607366        3.8971222330       -2.6886579182
 H        -4.5095439475        1.8332892904       -4.4886370547
 H        -3.3117989462        3.0140839911       -4.7618047694
 H        -2.9491812193        1.3389850379       -4.7352789729
 H        -5.8623670773       -0.1652288398       -1.0512911968
 H        -4.5524283221       -1.5373898241       -0.9300223708
 H        -8.2490889631       -2.2495744780       -5.0478825639
 H        -9.7191795627       -1.7521365738       -4.3025681740
 H        -7.6442309803       -3.8493918533       -1.6012359867
 H        -7.6744360572       -3.8136420302       -3.3634915871
 H        -9.1312641581       -3.6220848076       -2.4399865996
 H        -9.1316728965       -1.5674756557       -0.9114980283
 H        -7.5611615392       -2.1368832870       -0.1590291316
 H        -7.7659289043       -0.3840761287       -0.6848883960
 H        -9.8837050072       -0.2551697915       -6.0145829976
 H        -8.6761697779        0.7670972341       -5.2724244458
 H        -7.2852079904        3.7511094007       -8.1010167306
 H        -7.6201512455        2.4164632345       -9.2118769000
 H        -8.9470809254        3.1237930567       -8.0567982387
 H        -5.1502429428       -0.7333441132       -6.4668989674
 H        -6.1387680496       -0.2640997945       -5.2499944991
 H        -5.1250765239        0.9221223194       -5.9368454989
 H        -5.5610393663        0.5992124739       -9.0157987742
 H        -6.0454564216       -0.9969738971       -8.6316671646
 H        -7.1931562626        0.3525350576       -9.3558719010
 Na       -0.3801273280        1.1859450308       -0.0161404617
