155

 C         8.4970999765       -6.9485826434        4.1114559287
 C         8.4633260383       -5.4246010147        3.9374355912
 C         7.4996726635       -4.7769779217        2.9295041495
 C         6.0009579948       -4.8958671371        3.6693258362
 C         5.0760321550       -3.6139304039        3.7061890922
 C         8.0421021581       -3.4572424245        2.3650910679
 C         7.2717723670       -5.6862003269        1.7113747532
 O         9.0902058312       -4.7315446757        4.7003957319
 O         5.7166205866       -5.8211977696        4.3773156061
 C         4.3268583305       -3.5231988385        5.0101444611
 C         3.0572479505       -2.7987967619        4.6295803578
 C         1.6358372900       -3.4946378277        5.1501474087
 C         0.4504559312       -2.4291560618        5.1241407645
 C         0.2239059313       -1.4938544582        3.9273687323
 O         3.1101469978       -1.8525989057        3.8544927942
 O        -0.3071793897       -2.2798844417        6.1382996072
 C         1.2018283770       -4.5797954881        4.1288384513
 C         1.5289595657       -4.1421235015        6.5706392269
 C        -0.7847129709       -0.4734144964        4.1871746346
 C        -0.7420547954        0.5623026160        3.0725977133
 C        -0.7218943497        2.1673167925        3.3835939586
 C         0.3691804703        2.7441431750        2.3958680293
 C         1.5581800533        3.4821897724        3.1313176496
 C        -2.0942344675        2.5168392023        2.7925100181
 C        -0.5705708088        2.5247715045        4.9758029052
 O        -0.7786591173        0.2210034006        1.9460018210
 O         0.3603554212        2.6230598502        1.1603221651
 C         2.6097939396        4.0602958072        2.1339259958
 C         4.0335192741        3.8591649094        2.7263625835
 C         5.1661802793        4.2779407691        1.8338731604
 C         4.7491054134        3.9169627753        0.4114641932
 C         4.8587687191        2.4690332995        0.0800348774
 O         4.2082715585        3.6728919279        3.8830605737
 O         4.2840200942        4.7526198090       -0.3708369860
 C         5.3364562367        5.8062713378        1.9875615071
 C         6.4649435639        3.5677903648        2.3829992453
 C         4.4331103424        1.9114254284       -1.3435000780
 C         3.0458723970        1.2936038732       -1.3150921360
 C         2.4802114631        0.6977551317       -2.6247106875
 C         1.0433918529        1.2651811274       -2.9161404429
 C         0.9309253364        2.7273841852       -2.8102157104
 C         3.5178176524        0.9583683688       -3.7715837233
 C         2.1897860294       -0.7986041433       -2.4740821300
 O         2.3065398629        1.3536275093       -0.3524680512
 O         0.0382839467        0.6059697115       -3.0866476358
 C        -0.4364476161        3.3593399551       -3.1784014329
 C        -1.6152212643        2.7947317231       -2.3256874029
 C        -2.9313715703        2.0594749348       -2.8822561816
 C        -3.2488223932        0.7356063124       -2.1653773130
 C        -4.5244751994        0.0102927018       -2.5420351971
 O        -1.6100928637        3.0902752494       -1.1507274066
 O        -2.5293989072        0.2776493096       -1.3073495397
 C        -4.1581201155        3.0983942916       -2.5429698321
 C        -2.9037672438        1.8040315898       -4.3601085341
 C        -4.8380584462       -1.0702317214       -1.5808697006
 C        -5.8569763594       -2.0377118107       -2.1256885031
 C        -7.4780545148       -1.9304892335       -1.9342056385
 C        -7.9442829417       -0.7365878685       -2.9779128049
 C        -8.8313525252       -1.1506562902       -4.0659082584
 C        -8.1410218182       -3.2774120867       -2.2627002385
 C        -7.8440084537       -1.5102779194       -0.4907767512
 O        -5.4462197000       -2.9178295240       -2.8830003800
 O        -7.4997360440        0.4052948777       -2.7832288899
 C        -9.0650962666       -0.0492967195       -5.1036626498
 C        -8.4403249177       -0.5701871241       -6.4614140258
 C        -7.3105604876        0.3190154440       -7.0178618911
 C        -7.7867282635        1.8568132573       -7.1229960130
 C        -9.1091108058        2.3023125870       -7.8037908253
 O        -8.6456613205       -1.6988683313       -6.8495928073
 O        -7.1651934681        2.6975142688       -6.5363055126
 C        -6.1299968621        0.4062803551       -5.9869303065
 C        -6.6903792263       -0.0907268028       -8.4507255537
 H         7.5232421783       -7.2298372147        3.8778189641
 H         9.1708695844       -7.5508430897        3.4544188502
 H         8.7913345929       -7.2160485907        5.1572274179
 H         5.6931442256       -2.7215429459        3.5196106091
 H         4.4549568426       -3.7980785364        2.8817420137
 H         8.9823999762       -3.5216170974        1.8163272779
 H         8.3529239392       -2.7402067894        3.1828491794
 H         7.3614882557       -2.9187198342        1.7499417494
 H         6.7499883804       -6.5743018242        2.0183254777
 H         6.8388147061       -5.1974367091        0.8403046163
 H         8.1438847986       -6.1131964638        1.2545026656
 H         4.0103631469       -4.5710456560        5.4592941305
 H         4.8844575883       -3.0470308259        5.8255402348
 H         1.1635689663       -0.9609352530        3.6205171987
 H        -0.0736479813       -2.0990571378        3.0929018762
 H         1.4214501266       -5.6143284403        4.4922703740
 H         1.7445223737       -4.5301283281        3.2154556050
 H         0.1539433308       -4.3767143068        3.8804919901
 H         2.0795404633       -3.5227752791        7.2453377626
 H         0.4719413114       -4.2740827529        6.7459456799
 H         1.8798971712       -5.1779117851        6.5660144212
 H        -0.7096296546        0.0217636911        5.1685413703
 H        -1.8039893054       -0.8909158568        4.1216552947
 H         1.1170183446        4.2230464005        3.7690598536
 H         2.0109170964        2.8294216904        3.8906904859
 H        -2.3508557243        3.5630071899        2.6763660856
 H        -2.8931253532        2.0246522943        3.5301214812
 H        -2.2845308235        1.9069177115        1.9121837923
 H        -1.4553666899        2.0410781657        5.3507374375
 H         0.2336521563        2.0003712176        5.4571483551
 H        -0.5400669896        3.6005412970        5.2153256812
 H         2.3771045077        3.6202212039        1.1246495488
 H         2.6518819758        5.1640573492        2.0081626410
 H         5.9975368299        2.2856824514        0.0582623052
 H         4.6493415862        1.7687512626        0.9031342336
 H         4.9066804499        6.1681344990        2.9178278766
 H         4.8409629368        6.2491668612        1.1356891689
 H         6.3476624129        6.0418351533        2.1215163318
 H         7.4036181121        3.9007130451        2.0047270014
 H         6.6453530464        3.7174690282        3.4519253438
 H         6.4323898345        2.4454369668        2.2522764770
 H         5.1192707007        1.0946071736       -1.6721358620
 H         4.5495946246        2.6950805977       -2.1609442732
 H         1.1464502161        2.7990748033       -1.7228481674
 H         1.8023069754        3.1246861564       -3.2927596623
 H         4.5722409961        0.7527872834       -3.6049943518
 H         3.4297163235        1.9783410188       -4.0030032259
 H         3.3673058476        0.3614804057       -4.5729441132
 H         3.0396128276       -1.3665169007       -2.0025999986
 H         1.2126189379       -1.0305047770       -2.1710141276
 H         2.1869159595       -1.3471346390       -3.4038550695
 H        -0.4099067603        4.3751570109       -2.8319929749
 H        -0.7009269850        3.3710219219       -4.2437741103
 H        -5.3529127335        0.7268281483       -2.6270559995
 H        -4.5262022963       -0.3513360615       -3.5448444264
 H        -4.0372055872        3.3986628264       -1.4940247479
 H        -5.0446601636        2.6812649214       -2.8460743609
 H        -4.1218631140        4.0745998668       -3.1131482876
 H        -3.7546631064        1.1748798721       -4.5994731735
 H        -2.9480712730        2.5407342781       -5.0007740665
 H        -1.9352377056        1.4456698251       -4.7329395128
 H        -5.1858012690       -0.5741488826       -0.6709427096
 H        -3.8726098971       -1.6516405334       -1.4491899713
 H        -8.3468743829       -2.0112925073       -4.4128777709
 H        -9.7561107674       -1.5497691180       -3.6454876547
 H        -7.9576179375       -4.0717556728       -1.4931163257
 H        -7.9157184300       -3.7965374688       -3.2164247501
 H        -9.2405630693       -3.0281403143       -2.1770029475
 H        -8.8944088479       -1.1053001318       -0.3880412743
 H        -7.7312935447       -2.3762133479        0.1200196652
 H        -7.1313089212       -0.6771386505       -0.3303764539
 H       -10.1868054897        0.1058799661       -5.1701963307
 H        -8.5884711394        0.8793146090       -4.7637453593
 H        -9.2320482771        1.8048332686       -8.7940336579
 H        -9.9987222680        2.0434654536       -7.1501951410
 H        -9.1099540076        3.3869800228       -7.7785533553
 H        -5.4985810717       -0.4455522914       -5.9624834231
 H        -6.4778456249        0.6216265053       -5.0126400418
 H        -5.4610615427        1.1812672964       -6.3094093930
 H        -5.7290696585        0.4123956604       -8.5712873496
 H        -6.5477599432       -1.1683789447       -8.5409937486
 H        -7.4175137146        0.1664598642       -9.3197808005
 Na       -0.4393550791        0.9107958746       -0.2720899227
