155

 C         8.2305864588       -7.1336409823        4.0793481502
 C         8.3515884889       -5.5840623578        3.8393817777
 C         7.3786274791       -4.8870688988        2.8336888232
 C         6.0094728543       -4.8983638616        3.5131679693
 C         4.9398126019       -3.7065115956        3.5389740281
 C         7.8834395023       -3.4973616114        2.5682659387
 C         7.1466688492       -5.6866639966        1.5362938378
 O         9.0291822889       -4.9350661299        4.5790855721
 O         5.7127912315       -5.8509521402        4.1992118775
 C         4.3291978324       -3.6048709843        4.9696864243
 C         2.9660487932       -2.8848823496        4.7282284235
 C         1.6441504399       -3.5563706555        5.1481365816
 C         0.4768487313       -2.4419196908        5.2419690032
 C         0.3178652250       -1.5791451702        4.0181511930
 O         2.8867297368       -1.8067036467        4.1450930359
 O        -0.2734939691       -2.3646877669        6.1528546706
 C         1.3716173219       -4.6109937922        4.0111817732
 C         1.7707514097       -4.1691135727        6.5638761423
 C        -0.7984868171       -0.5336038411        4.3118777662
 C        -0.8519339028        0.4662759127        3.0938264305
 C        -0.7942015043        2.0861429280        3.5030096309
 C         0.4215769102        2.8280445549        2.5166797269
 C         1.5396244483        3.6497626744        3.2004251946
 C        -2.1446596962        2.7875403275        2.9760840917
 C        -0.5281625181        2.4442151852        5.0101732241
 O        -0.7012971277        0.0563673529        1.9008087492
 O         0.3281099031        2.7736028915        1.3368222694
 C         2.5981850008        4.0659796240        2.2021752102
 C         4.0560406393        4.0707411495        2.6874086778
 C         5.3469910226        4.4823875423        1.7703905724
 C         4.8574715069        3.9423856325        0.3453731472
 C         4.7570518492        2.4356049861        0.0953507467
 O         4.2721264628        3.7447260927        3.8365111490
 O         4.4479360163        4.6302620387       -0.5540859872
 C         5.7341900385        5.9985313109        1.6535749737
 C         6.5928819896        3.6531423056        2.1604134789
 C         4.2030331061        2.1634782847       -1.2990343129
 C         2.9005955626        1.3420234680       -1.3398045139
 C         2.4729485704        0.6592216103       -2.6308034681
 C         1.0538831613        1.3386936130       -2.9428241433
 C         0.8962588283        2.9263195349       -2.9266372827
 C         3.2609835823        0.8800160368       -3.9447156237
 C         2.3944806191       -0.8605027776       -2.3125133486
 O         2.1573015570        1.2549096768       -0.3643751857
 O         0.0344636313        0.7622853246       -3.2812256219
 C        -0.4755758359        3.3263871004       -3.3142640477
 C        -1.5322306687        2.7004132928       -2.3425230855
 C        -2.8376684567        2.1366726904       -2.9765513777
 C        -3.1483768873        0.7647646569       -2.2138222690
 C        -4.3913108056       -0.0008204357       -2.6417483754
 O        -1.3263515638        2.6687246025       -1.1328433387
 O        -2.4060476745        0.3289022920       -1.3142506895
 C        -3.9049750735        3.2579880266       -2.7830447848
 C        -2.7313500347        1.8284466958       -4.5187272602
 C        -4.8381098308       -1.0234539007       -1.5546860789
 C        -5.8379030352       -2.1310032887       -2.1876346191
 C        -7.3257976126       -1.8827608153       -1.7984016540
 C        -7.9006480085       -0.8327673883       -2.7463963548
 C        -9.1224854404       -1.1667287389       -3.8130129646
 C        -8.0684301592       -3.2917988567       -1.9610394306
 C        -7.5566179281       -1.3940467968       -0.3952179867
 O        -5.4830846825       -3.1450216457       -2.7654382357
 O        -7.5848437881        0.3087554011       -2.5716738482
 C        -9.2419599197       -0.1350042040       -4.9282793620
 C        -8.5309466713       -0.5318392042       -6.2611408243
 C        -7.4703997203        0.4508946357       -6.9086201053
 C        -7.8672786532        2.0161022357       -7.2143919087
 C        -9.3155542845        2.1820084220       -7.6508318710
 O        -8.6574606605       -1.5879615480       -6.8182668256
 O        -7.1104064589        2.9376128067       -7.0602042006
 C        -6.2180581529        0.4361798609       -5.9466192840
 C        -7.0539587637       -0.2361494157       -8.2552862495
 H         7.2108483328       -7.5575589582        4.0283452231
 H         8.7614224912       -7.6378483646        3.2789694428
 H         8.8215840732       -7.3721927428        4.9303569543
 H         5.4634223006       -2.8092385394        3.2578313263
 H         4.1018408331       -4.0459180521        2.7967744535
 H         8.8247376557       -3.3608606279        2.0525967629
 H         8.0355615604       -3.0138497307        3.5196096966
 H         7.1567148072       -2.7681738297        2.0914678536
 H         6.5443801477       -6.6407844018        1.6994529184
 H         6.7107375097       -5.0598141666        0.7997685472
 H         7.9401283839       -6.2122424606        1.0198979382
 H         4.2037397114       -4.5218299187        5.3662731155
 H         4.8401050979       -3.0148995068        5.7203840150
 H         1.2350912939       -1.0885529841        3.7024008384
 H         0.0716023445       -2.2924494352        3.1570339225
 H         2.1629549611       -5.3080287396        4.1181414730
 H         1.5265159887       -4.2339692735        2.9773022452
 H         0.3815387494       -5.0022169250        4.1314766406
 H         2.2296812879       -3.3860991485        7.1717689893
 H         0.8048206880       -4.4983975412        6.8275679202
 H         2.3759283372       -5.0269383928        6.6518786995
 H        -0.5233560950        0.0833848024        5.1716052891
 H        -1.7506689659       -1.0271892166        4.5194689220
 H         1.0836322087        4.5664358760        3.6768740577
 H         1.7735796414        3.0981507470        4.1124828483
 H        -2.1879286470        3.8655162321        3.2073074651
 H        -2.9940808110        2.3487130428        3.3561908888
 H        -2.1870260103        2.6544443271        1.8795535512
 H        -1.2512720951        1.9067288352        5.6549791217
 H         0.4409921587        2.0073721003        5.3093021282
 H        -0.5248090114        3.5211754534        5.1374581360
 H         2.4588893212        3.3324964703        1.4163776291
 H         2.4342017285        5.0600281094        1.7682741519
 H         5.5361272805        1.7394249669        0.2056925423
 H         4.0836699132        1.9859054292        0.8430373480
 H         6.0150749270        6.4224306834        2.6262422473
 H         4.8572169422        6.4828785768        1.2559425352
 H         6.6574397256        6.1819912795        1.0567166752
 H         7.5629790287        3.7792891391        1.6376333382
 H         6.9057340493        3.8662101514        3.1726300312
 H         6.3190586809        2.6267527891        2.2000580518
 H         4.9879113864        1.7228882492       -1.9173569189
 H         3.9194204952        3.1040906192       -1.7947789004
 H         1.1036578826        3.2157401323       -1.9267332385
 H         1.6279441856        3.3836514832       -3.6076308770
 H         4.0393471965        0.1661348339       -4.0755847734
 H         3.7495781550        1.8603600779       -3.9447479486
 H         2.5380472722        0.7509480463       -4.8803856977
 H         3.3029839835       -1.2266471600       -1.9591037858
 H         1.5383374602       -1.0528706203       -1.6092477255
 H         2.0768656651       -1.5929594320       -3.0694286953
 H        -0.5031792462        4.4468313379       -3.2219643493
 H        -0.7251203040        3.1104782015       -4.3434696555
 H        -5.1898037289        0.6526882643       -2.9767870212
 H        -4.2281502793       -0.5827614277       -3.5880998440
 H        -3.8225186525        3.6545071668       -1.7709140131
 H        -4.9249895638        2.8082049405       -3.0761531280
 H        -3.7703142217        4.0832878680       -3.4420421623
 H        -3.6601610230        1.7977509100       -5.0772460959
 H        -2.0058881423        2.3886133529       -5.2387973902
 H        -2.1837162496        0.9012612923       -4.6321367024
 H        -5.2494541713       -0.4781075589       -0.6757940043
 H        -3.9697321143       -1.5435151228       -1.1637831481
 H        -9.0898778606       -2.2480794652       -4.1841220989
 H       -10.0173028614       -1.1257582573       -3.1732777831
 H        -7.7891796552       -3.9022257937       -1.0857363287
 H        -7.5823042597       -3.8892606287       -2.7563406121
 H        -9.1350185319       -3.2838940984       -2.0858702803
 H        -8.5706685179       -1.6474682653       -0.2118220933
 H        -6.9561658867       -2.0131619564        0.3192078788
 H        -7.4263950194       -0.3252202900       -0.4178006214
 H       -10.2710917859        0.0216847271       -5.1719070443
 H        -8.7899468580        0.7994849656       -4.5499684070
 H        -9.6728543951        1.2447222993       -8.0401836019
 H        -9.8176595513        2.4294853346       -6.7512397376
 H        -9.5220780335        3.0688982650       -8.2539321717
 H        -5.5571267105       -0.4611599043       -6.0923052184
 H        -6.5178288854        0.5427263007       -4.8666225227
 H        -5.5297301462        1.2670422376       -6.1886533172
 H        -6.1532900493        0.2622092908       -8.6299710073
 H        -7.0144508492       -1.3196840463       -8.2545970354
 H        -7.8403918621       -0.1178444076       -8.9078876488
 Na       -0.2872847545        1.0597380477       -0.2048101095
