155

 C         7.6723339532       -7.8531595891        3.0829744412
 C         7.8838324212       -6.3447589326        3.1540035775
 C         6.9695419941       -5.2360206707        2.4013910055
 C         5.5025947242       -5.2006214962        3.1501337494
 C         5.3122208409       -4.3622745790        4.5498262601
 C         7.5601603740       -3.7756399320        2.4148038516
 C         6.8095650305       -5.8287655011        1.0282461885
 O         8.7425661550       -5.9128849206        3.9153180830
 O         4.6100421803       -5.9639996834        2.8461183543
 C         3.9545254043       -4.5598930556        5.2763139955
 C         2.9761428884       -3.4340134338        4.8598437228
 C         1.4484902429       -3.6709008951        5.1797579627
 C         0.7020729553       -2.2970976504        5.2470940924
 C         0.5839793655       -1.5073685022        3.9125602201
 O         3.3471518737       -2.4279210439        4.3400708544
 O         0.2101893676       -1.8880663285        6.2462906495
 C         0.7380300147       -4.5256115441        3.9823508470
 C         1.2456269328       -4.4304647397        6.4450236155
 C         0.7447833611        0.0489554923        4.0093436051
 C         0.1121310277        0.8860818267        2.8891273112
 C        -0.2306984766        2.4396236591        3.3449442824
 C         0.7664558434        3.3403654114        2.6836346244
 C         1.8858264464        4.0785759534        3.5131012786
 C        -1.6826714264        2.6899988348        2.7557518749
 C        -0.3581264447        2.7843495570        4.9174605770
 O         0.0082629223        0.5308256808        1.7153172635
 O         0.6814248841        3.5749397782        1.4804052232
 C         2.9417612184        4.9734098753        2.7693895753
 C         4.1662808801        4.1537289517        2.4140932364
 C         5.0613116379        4.6368584617        1.1198249709
 C         4.5176836295        3.6003079006       -0.0214435438
 C         4.6254839723        2.0706642248        0.3022317397
 O         4.4542252968        3.1636340350        3.0601072334
 O         4.0761408987        4.0222233678       -1.1099703011
 C         4.9160606351        6.0535298369        0.6973285909
 C         6.5047710976        4.2569722132        1.6436469285
 C         4.4471415673        1.1876000132       -0.8862741765
 C         2.9525979925        1.2708528292       -1.3057692690
 C         2.7018983696        0.8810945416       -2.7863910480
 C         1.2939372625        1.3759147700       -3.1885290572
 C         1.1630151978        2.7572168474       -3.8484449872
 C         3.7571657992        1.4517119744       -3.8166268543
 C         2.7682755157       -0.6086309583       -2.7823873580
 O         2.0359156799        1.5417277920       -0.5132674772
 O         0.3604252889        0.6034604887       -3.0368019525
 C        -0.3894320353        2.9057616329       -4.2159432932
 C        -1.2801957305        2.6126759204       -2.9605610100
 C        -2.7407991449        1.8413814413       -3.1628330339
 C        -2.6891896572        0.7230990603       -2.1058561274
 C        -3.2563556857       -0.7430412253       -2.3363429394
 O        -1.0783179217        3.1703305675       -1.8851586107
 O        -2.2311765106        0.8993970810       -1.0108590660
 C        -3.7412447986        2.9771583306       -2.6401751389
 C        -3.1503498852        1.3110425501       -4.5405480889
 C        -4.4577093421       -0.8647341262       -1.4684869771
 C        -5.4841007976       -1.9563742124       -1.6721357143
 C        -7.0036620546       -1.6385228419       -1.2030227895
 C        -7.5686722441       -0.3673789981       -2.0797699917
 C        -8.9701569620       -0.4329284736       -2.6835388675
 C        -7.8687354702       -2.8333491008       -1.4235958134
 C        -7.0346986834       -1.1833459024        0.2798871292
 O        -5.2258309729       -2.8921839162       -2.3837478306
 O        -6.7515104913        0.4704695469       -2.3744690800
 C        -9.0420769786        0.5149406656       -3.8786581119
 C        -9.0055867656       -0.2574881983       -5.1495980594
 C        -8.3125302576        0.3470150131       -6.4052105298
 C        -9.1265379882        1.6508978399       -7.0043424607
 C       -10.5232822731        1.4056044317       -7.4753996317
 O        -9.4129071686       -1.4166886695       -5.2766892978
 O        -8.5511379737        2.7291799864       -7.1286465563
 C        -6.9417685309        0.7848739704       -6.0095338655
 C        -8.2410035150       -0.7732815065       -7.5403510718
 H         7.0655118813       -8.2753850971        3.8723334197
 H         7.3319194771       -8.3343318994        2.1283578339
 H         8.5935662518       -8.2368573532        3.4389136916
 H         6.1655867811       -4.6697746289        5.1497780461
 H         5.6372237127       -3.2731463310        4.3038422674
 H         8.3247102996       -3.6221079655        1.7216120033
 H         8.1919506169       -3.6060042837        3.2819791567
 H         6.8771718084       -3.0018569772        2.2362589004
 H         6.3448855886       -6.7793701675        1.0895440971
 H         6.2727097642       -5.2812864387        0.2242486328
 H         7.7826324557       -5.9899425111        0.4618773070
 H         3.5301831500       -5.5632917957        4.9739577625
 H         4.0132043198       -4.5400579079        6.3681827485
 H         1.2596824706       -1.9545672757        3.2087633249
 H        -0.4255101330       -1.6914678667        3.6069911551
 H         1.4971681185       -5.2411300459        3.5880992394
 H         0.4204682860       -3.8990831170        3.1760469334
 H        -0.1509149820       -5.0152976379        4.3706112131
 H         1.6733798587       -3.9900033326        7.3739231071
 H         0.1863868037       -4.5574428237        6.6918970110
 H         1.5993890830       -5.4829155463        6.3259433241
 H         1.8280554272        0.3660131606        4.1129690667
 H         0.3456863338        0.3808996888        4.9636178980
 H         1.2884783126        4.7269986210        4.1549498257
 H         2.4795702580        3.4184915558        4.1335703015
 H        -1.8529465723        3.7162586179        2.5650058037
 H        -2.4852810037        2.3392337038        3.4903652927
 H        -1.8562025525        1.9719272349        1.9766004196
 H        -1.1786865306        2.1118761172        5.2208174707
 H         0.3694531805        2.6856353825        5.6790543954
 H        -0.7018026809        3.8256371366        5.0421726590
 H         2.5489539473        5.6167582320        1.9703427708
 H         3.2892057244        5.7052315483        3.5212977036
 H         5.6103620529        2.0246482302        0.6928117264
 H         3.8570777294        1.7909235611        1.1316395259
 H         4.9819774545        6.8056857367        1.5284800779
 H         3.8952112520        6.2748737900        0.3013189880
 H         5.5681313990        6.3506932009       -0.1130498016
 H         7.3558514656        4.3154394270        0.9752401790
 H         6.7302434028        4.9959432002        2.3966491939
 H         6.5710807336        3.2480684956        2.0898410121
 H         4.4771154540        0.1491310876       -0.5422832633
 H         5.1437077490        1.4666587040       -1.7300363872
 H         1.5424170348        3.5815029557       -3.2310535043
 H         1.8590779747        2.7307173524       -4.7590089585
 H         4.6446360090        0.7664722933       -3.9869064964
 H         3.9467912347        2.4601809315       -3.4335188747
 H         3.2939498265        1.4235461250       -4.7347273903
 H         3.7122404030       -0.9498026347       -2.2810141428
 H         1.9774612713       -1.1157991991       -2.2989612078
 H         2.8530041923       -1.0387469075       -3.7720395733
 H        -0.7335987142        3.8948442339       -4.5618693541
 H        -0.5706314926        2.1510707070       -4.9839937613
 H        -3.5965093196       -0.9000488955       -3.3705999315
 H        -2.5016466968       -1.5177200481       -2.0552837400
 H        -3.1752458937        3.5149432882       -1.8568211983
 H        -4.6541457051        2.5687315986       -2.3565544336
 H        -3.8986450119        3.7041866469       -3.4541679848
 H        -4.1823698981        0.8937062678       -4.4849254966
 H        -3.2115968986        2.0985897920       -5.2128655754
 H        -2.3607626519        0.6691126112       -4.9288566301
 H        -4.8184905840        0.1411819094       -1.3793929778
 H        -4.0718887504       -1.0741032187       -0.4000241393
 H        -9.1664768541       -1.4534149766       -3.0554267176
 H        -9.6693040519       -0.2214704543       -1.9219932046
 H        -7.7876855479       -3.4716804855       -0.5673059080
 H        -7.6309704927       -3.2850866923       -2.3309476305
 H        -8.8486060786       -2.4309620088       -1.4019935889
 H        -7.9406274649       -0.7294638669        0.6293317501
 H        -6.8169064538       -2.0322393529        0.8734031828
 H        -6.2684853516       -0.4180087635        0.4595658952
 H        -9.9322433314        1.1229996135       -3.8779721048
 H        -8.2397495398        1.2845814414       -3.9228697514
 H       -10.5269726642        0.8186910171       -8.3877976601
 H       -11.0231525342        0.7891325240       -6.7657498140
 H       -11.0471373941        2.2898140352       -7.7049387728
 H        -6.4500530159        0.0437126820       -5.3052196081
 H        -7.0082918037        1.7804558126       -5.4880014336
 H        -6.2608962399        0.7931668334       -6.8788350265
 H        -7.5153055419       -0.5043831703       -8.2937539470
 H        -7.8597454270       -1.6469743400       -7.0999965998
 H        -9.2583058303       -0.9183802652       -8.0236768111
 Na       -0.2426196150        1.8164952122       -0.0042447348
