155

 C         7.3528368114       -7.8307546859        2.6614164964
 C         7.2852693832       -6.4080911470        3.0753948172
 C         6.5286130190       -5.3333801703        2.2245811122
 C         5.1651526963       -5.2882387387        3.0300067372
 C         5.1127464412       -5.4002282083        4.5773958486
 C         6.9798642865       -3.7981772913        2.4733839816
 C         6.2702591437       -5.8459595744        0.8005230590
 O         7.8984671781       -5.9891191216        4.0793778293
 O         4.0901696070       -5.4225372486        2.4532694077
 C         3.7879730269       -5.2081448095        5.2375690264
 C         3.0993059576       -4.0060481998        4.5640583530
 C         1.5938496955       -3.6301828275        4.7806408535
 C         1.4336342648       -2.0454466540        4.8860732123
 C         1.4960999495       -1.0885680967        3.6957130148
 O         3.7060875741       -3.0663106792        4.0653915967
 O         0.9997807220       -1.6403309414        5.9379933330
 C         0.7648534195       -4.1812766648        3.6216322637
 C         0.9998446026       -4.2628061418        6.0984526002
 C         0.7936697212        0.2486514460        4.0189136994
 C         0.5615879831        1.2228925373        2.8865917951
 C        -0.0968535282        2.5888936475        3.2335455201
 C         0.7355648814        3.8448758975        2.5364260271
 C         1.3890468280        4.8664877160        3.4728243973
 C        -1.5119832822        2.5050631533        2.5939048998
 C        -0.2639682863        2.7454002545        4.7929209683
 O         0.8267432378        0.8989857092        1.7285218608
 O         0.7868790551        3.8716204664        1.3364842132
 C         2.7992537764        5.3499494391        2.7956956956
 C         3.7693219113        4.1843043613        2.1965722722
 C         4.5305417277        4.3366601546        0.8787963925
 C         4.6212908145        3.1830795496       -0.1644855748
 C         5.0765025583        1.7032346835        0.2048207492
 O         4.0536937409        3.1971357455        2.8740789147
 O         4.3039697629        3.4560243529       -1.3258635210
 C         4.2397618319        5.5541296415        0.0728848171
 C         6.0002776188        4.4242365679        1.4622101593
 C         4.7593472486        0.8187349117       -0.9929776712
 C         3.3340277271        1.0705528567       -1.5163090488
 C         3.0805237017        0.8879696387       -3.0058193117
 C         1.5809621302        1.2369680955       -3.1375693287
 C         1.0901403213        2.3988182500       -4.0208046913
 C         4.1309788006        1.7964228711       -3.7997941428
 C         3.3458982780       -0.5367965913       -3.3187461289
 O         2.4852592698        1.3474237437       -0.6764922514
 O         0.7335755139        0.4882389403       -2.5861361858
 C        -0.3829531694        2.6487459117       -4.2226637792
 C        -1.1826084145        2.7447485360       -2.8362234140
 C        -2.5517264097        1.9551274823       -2.7465191846
 C        -2.4723280523        0.6422406569       -1.5328214661
 C        -3.4658203437       -0.4562571936       -1.8855241340
 O        -0.7993880076        3.4364837113       -1.9092889231
 O        -1.4748505544        0.5482247555       -0.8376633598
 C        -3.6580132683        2.9405501020       -2.1798322686
 C        -2.9287062360        1.4467600071       -4.1693645898
 C        -4.4481487271       -0.8537533069       -0.6668219030
 C        -5.5087447778       -1.7697103145       -1.2323979640
 C        -7.0164655420       -1.3260158098       -1.0378330151
 C        -7.3252267022       -0.0816020058       -1.9413678158
 C        -8.7963676056        0.0808310613       -2.3002731159
 C        -7.7906100269       -2.6008092553       -1.4612433576
 C        -7.3402754941       -1.0918990492        0.4440801817
 O        -5.1972028941       -2.6523640269       -2.0038205766
 O        -6.4257667506        0.5380113908       -2.4518601087
 C        -9.0697855483        0.8238393816       -3.6636140156
 C        -9.1270874067       -0.2011304418       -4.7886737144
 C        -8.6314275149        0.2374053358       -6.2269270513
 C        -9.6915047293        1.3387664717       -6.6030135106
 C       -10.9196383287        0.9336183858       -7.4876742586
 O        -9.6067144591       -1.3337049008       -4.6125074354
 O        -9.8194161149        2.3310831947       -5.8640412103
 C        -7.1936107268        0.7191920894       -6.3014563537
 C        -8.7196027538       -0.9412143247       -7.2825746670
 H         7.9191734877       -8.2378693471        3.3811380234
 H         6.3838669047       -8.3555330482        2.5615047846
 H         7.9300959105       -8.0736658583        1.7326054369
 H         5.4733488787       -6.3889511144        4.7035870373
 H         5.9419005823       -4.8118392069        5.0874560425
 H         7.8400704647       -3.6102698445        1.9128769227
 H         7.1766465868       -3.6866351701        3.5107049921
 H         6.3008379035       -2.9918408027        2.1538995736
 H         6.1524810526       -6.9893963422        0.8313479222
 H         5.4374536431       -5.4395814200        0.2994621276
 H         7.1278000008       -5.7562641762        0.1501635416
 H         3.1622133151       -6.0082478491        5.2663838314
 H         3.8726227436       -5.0108883084        6.2938055963
 H         2.5511508917       -0.8705611352        3.4154941698
 H         0.9934101815       -1.7015181483        2.8923724442
 H         1.0102735974       -5.2159229129        3.5167040853
 H         0.9011376570       -3.7175380633        2.5978458035
 H        -0.2864371889       -4.1359615161        3.8983255701
 H         1.0618820428       -3.4851955080        6.9086351120
 H         0.0151664109       -4.6649911188        5.8851750309
 H         1.5199607012       -5.0779585356        6.5825578527
 H         1.3193536861        0.8302784329        4.6913922472
 H        -0.1611923977       -0.0809804057        4.4854589966
 H         0.7715953676        5.7351725015        3.6394884993
 H         1.6047629496        4.2498651385        4.3311347693
 H        -1.9429238001        3.5147573514        2.8697018255
 H        -2.1908340962        1.7171318158        3.0661346147
 H        -1.4990599739        2.3741152442        1.4912597533
 H        -0.8928828755        1.9895767713        5.2871007324
 H         0.6535751216        2.8111141643        5.3436523817
 H        -0.7075442671        3.6641528598        5.1132444233
 H         2.4988145158        6.1039788352        2.0380999648
 H         3.4182713867        5.9717075260        3.4670437946
 H         6.2264501659        1.7073635787        0.3083507851
 H         4.5817606459        1.4341710278        1.1419936688
 H         4.7397768539        6.4629253489        0.5067948086
 H         3.2455574487        5.8015185719       -0.2017041317
 H         4.8004886712        5.5859655200       -0.8744720835
 H         6.8688148978        4.5359287682        0.7710780397
 H         6.0783531758        5.1971027016        2.2226606805
 H         6.0852194373        3.5166662951        2.0349565331
 H         4.9822574665       -0.2946017209       -0.7847892897
 H         5.4054611284        0.9872171351       -1.8384601476
 H         1.3888456146        3.3383886991       -3.5980537257
 H         1.5406362266        2.4055026908       -4.9586020660
 H         4.9981980339        1.7527078124       -3.1633271198
 H         3.8448146144        2.7907781196       -3.7815079815
 H         4.3300842675        1.3990790930       -4.7019835369
 H         4.3465585564       -0.7677688255       -3.1647859955
 H         2.6334692609       -1.2394757336       -2.8125330853
 H         3.1414857160       -0.7905322203       -4.3846183065
 H        -0.4635407453        3.5859067167       -4.8120089270
 H        -0.7441322744        1.8215155129       -4.8444085811
 H        -4.0914369959       -0.1738322542       -2.7147308264
 H        -2.7960616226       -1.3328237789       -2.0936013309
 H        -3.1201787914        3.7185016334       -1.6327953098
 H        -4.4090998907        2.3184779055       -1.6431672461
 H        -4.2162071724        3.3533288944       -2.9552553527
 H        -3.9016733231        1.0133839998       -4.1627113792
 H        -2.7523172292        2.3289405216       -4.7236650423
 H        -2.1057124693        0.6866731549       -4.4563683770
 H        -4.9682779013        0.0500357133       -0.3962939717
 H        -3.9066210473       -1.3423874434        0.0614671225
 H        -9.1953354345       -0.8613514764       -2.5148158567
 H        -9.3749218235        0.4852495930       -1.4785047757
 H        -7.4605080534       -3.5087955040       -0.9704883560
 H        -7.4085163124       -2.7351740723       -2.4547726334
 H        -8.8134133150       -2.4707157389       -1.4342819183
 H        -8.3498845640       -1.3294409076        0.5666997232
 H        -6.8192368922       -1.6208308852        1.2486608599
 H        -7.2265738390       -0.0831585629        0.7536631013
 H       -10.1071221842        1.2526325987       -3.5249934034
 H        -8.4547466489        1.6870709648       -3.9236659848
 H       -10.6609349259        0.9685668640       -8.5446999258
 H       -11.3255565209       -0.0299586909       -7.3754567622
 H       -11.7330614534        1.5989193681       -7.2583916230
 H        -6.5921286288       -0.2169371434       -6.1323626062
 H        -6.9280830357        1.4163246275       -5.4607003789
 H        -6.9893108881        1.2367608687       -7.2675284771
 H        -8.6406183944       -0.5437465801       -8.3175776102
 H        -7.9510117722       -1.7114980054       -7.0762083051
 H        -9.6011331546       -1.4676370459       -7.1063501721
 Na        0.2321301800        1.9935555578       -0.3701173322
