155

 C         7.2275590616       -7.8103125643        2.6229818532
 C         7.1926836298       -6.3617651046        3.1287034887
 C         6.3367281387       -5.3598898170        2.1866345985
 C         4.9035215021       -5.5179193864        2.8822644097
 C         4.8845647268       -5.5783134484        4.4379742444
 C         6.8303408050       -3.9855020390        2.3325465283
 C         6.1712100542       -5.5591593393        0.5669360142
 O         7.7468893907       -6.0408352494        4.1399972407
 O         3.8933195286       -5.7372443821        2.2961278648
 C         3.5242820542       -5.2654536247        5.0461952132
 C         3.0876180745       -3.8389201148        4.5996245903
 C         1.5470608855       -3.5438302052        4.7335213033
 C         1.4521199840       -1.9827421714        5.0056066585
 C         1.7660653431       -1.0582964560        3.7769869666
 O         3.9400940225       -3.0571177246        4.1943536904
 O         1.3545284572       -1.5130412893        6.1226542055
 C         0.9322286309       -3.9718748354        3.3609408987
 C         0.8603108576       -4.3987066245        5.8225883576
 C         1.0621848567        0.2854203303        4.0291988119
 C         0.6134318240        1.1380347645        2.8291579480
 C        -0.0745251279        2.5120564250        3.1115323633
 C         0.7562022808        3.6554364635        2.3024083693
 C         1.5767190848        4.7367896778        3.2287279609
 C        -1.5108194392        2.7805466491        2.4245478683
 C        -0.2179524818        2.8411034802        4.6406053359
 O         0.9400752609        0.8383852743        1.7347743222
 O         0.7042802638        3.7636837768        1.0895152520
 C         2.6642381416        5.2357852116        2.3667382936
 C         3.6677007600        4.1460823206        2.1150095963
 C         4.6545214407        4.4597416858        0.8192309059
 C         4.6592278034        3.1936505806       -0.2184576995
 C         5.0637152559        1.8235460511        0.3783377126
 O         3.4761240280        3.0370619500        2.5865348015
 O         4.3569244538        3.3529745373       -1.3524271272
 C         4.2649758262        5.7427371334        0.1022789619
 C         6.0889900877        4.5672954995        1.3070373220
 C         4.9077347287        0.8045932990       -0.7338793097
 C         3.5239050100        0.9359417959       -1.4065364483
 C         3.1918652348        0.9566493472       -2.9808150750
 C         1.6190259181        1.3460969532       -3.1278988535
 C         1.2825352259        2.5720285489       -3.8581915615
 C         4.0673292090        1.8766311388       -3.8068737271
 C         3.3849541808       -0.5448255863       -3.4620597798
 O         2.6339528719        1.1401385011       -0.6344132948
 O         0.7777179331        0.6209588748       -2.6761783815
 C        -0.2516974063        2.5036508784       -4.1849985417
 C        -1.0438443197        2.5605954791       -2.8263078988
 C        -2.4762326067        1.9703514826       -2.6345106920
 C        -2.4449611093        0.7410432601       -1.6144661408
 C        -3.3715093290       -0.5338162164       -1.8013843554
 O        -0.5958007480        3.2038327510       -1.8599014404
 O        -1.5080603156        0.6953360903       -0.8211891559
 C        -3.3670425029        2.9768968396       -1.9349868227
 C        -3.2289791391        1.5158521328       -4.0132468984
 C        -4.4182111214       -0.5720300212       -0.7233360180
 C        -5.4219924975       -1.6779421693       -1.0794048925
 C        -6.9968552835       -1.4272888265       -1.0127134478
 C        -7.3269969275       -0.1773998363       -1.8392151594
 C        -8.7567238685        0.3605529153       -2.1340317515
 C        -7.8244056081       -2.6586728694       -1.3902383654
 C        -7.3296591089       -0.9767943780        0.3831708918
 O        -4.9395552673       -2.6705332441       -1.5666796774
 O        -6.3711481575        0.4167239710       -2.3494592183
 C        -8.9325435895        0.8883351739       -3.5333222643
 C        -9.0807438302       -0.2562213295       -4.6160529901
 C        -8.9845928598        0.2207849828       -6.1052276534
 C       -10.0679161132        1.2825953754       -6.4569033636
 C       -10.9795102996        1.0204719030       -7.6719683891
 O        -9.2862822298       -1.3994680989       -4.3437061446
 O       -10.1965867303        2.2829638320       -5.8178789412
 C        -7.5297340758        0.8388091821       -6.2332266148
 C        -9.0456525487       -1.0671806239       -6.9863813162
 H         8.2702456662       -8.3268427651        2.7385956420
 H         6.4364758966       -8.4657488919        2.9833798449
 H         7.0522382227       -7.7716333890        1.5611743601
 H         5.1886066983       -6.6489693470        4.7560701519
 H         5.6402789051       -4.9661006612        4.7541787690
 H         7.6033131502       -3.6667173889        1.5169242755
 H         7.1304917653       -3.8044493719        3.3789366342
 H         5.9740166120       -3.3128647392        2.2506105535
 H         5.4398357477       -6.2573593174        0.2206215737
 H         5.8132488222       -4.5684642831        0.1827563230
 H         7.1476878478       -5.6784186861        0.0806299427
 H         2.7517121986       -6.1010257068        4.8299399511
 H         3.4940062263       -5.2487198102        6.1510540988
 H         2.8511378919       -0.9049880129        3.8222398547
 H         1.5237096413       -1.5694205477        2.8557025468
 H         1.0619833050       -5.0492608773        3.0877752237
 H         1.3132838204       -3.3554655725        2.5936207219
 H        -0.1682536817       -3.8544453910        3.3972542967
 H         0.6019109512       -3.7788033978        6.6439227529
 H         0.0153948374       -5.0036354459        5.4408768344
 H         1.5709233512       -5.0856370214        6.2979542916
 H         1.6528202549        1.0388781997        4.6823512926
 H         0.1770200181       -0.0579391884        4.5623227100
 H         0.9602270107        5.6200889933        3.4654526598
 H         2.0600134598        4.2268808240        4.0821316723
 H        -1.8025751506        3.8278949995        2.3155185109
 H        -2.2493001188        2.2402327632        2.9321029031
 H        -1.3598458053        2.3325673617        1.4114917520
 H        -0.9182911216        2.2619312681        5.1809734202
 H         0.7388844033        2.8462120281        5.1976183068
 H        -0.6853269663        3.8187360593        4.8471752173
 H         2.2211059966        5.5297971881        1.4228086390
 H         3.1050241091        6.1700091381        2.7017636140
 H         6.0864273796        1.9058646512        0.6042151426
 H         4.4767537085        1.6768412216        1.2903537727
 H         4.0404610790        6.5936202529        0.7059498613
 H         3.3332873120        5.4657484092       -0.4547712414
 H         4.8919412988        6.1529451847       -0.6792308722
 H         6.6331509235        4.8342457592        0.4235407216
 H         6.1883063340        5.4553878127        1.9551733054
 H         6.6107870037        3.7435764759        1.8084182835
 H         5.0436694663       -0.1977486582       -0.4469701751
 H         5.6904052174        0.8374408641       -1.5269956701
 H         1.4351872322        3.5061235984       -3.2874361456
 H         1.9190883023        2.6767386415       -4.7841830245
 H         5.0958333452        1.8621910565       -3.4937364586
 H         3.7229473416        2.9432264296       -3.7499996283
 H         3.9699352332        1.3984988021       -4.8934618996
 H         4.3788256970       -0.9428799431       -3.0549551646
 H         2.5967975678       -1.1657059905       -3.0591064268
 H         3.3911981925       -0.7581698012       -4.5223751225
 H        -0.6314628415        3.3838309048       -4.7052831330
 H        -0.4702250813        1.6133101696       -4.8002030198
 H        -3.9895467893       -0.4183017352       -2.7119066261
 H        -2.7620712091       -1.3962192400       -1.8369920263
 H        -2.7992194884        3.4338964264       -1.1257402264
 H        -4.2553727247        2.4417997689       -1.5913530676
 H        -3.6474243271        3.7485831807       -2.7316653858
 H        -4.2516980809        1.3634116360       -3.6515204116
 H        -3.1415072047        2.4474085392       -4.6722756998
 H        -2.9002335248        0.5733619630       -4.3156735251
 H        -4.9201082803        0.4140844838       -0.7079131930
 H        -3.8806518235       -0.9461034897        0.1994385260
 H        -9.5672245078       -0.4457211720       -2.0387952180
 H        -8.9682359311        1.1407442404       -1.3674780390
 H        -7.6375759386       -3.3865469446       -0.5803337808
 H        -7.5397541219       -3.1406724207       -2.3652731619
 H        -8.9310681459       -2.3762168572       -1.2801994755
 H        -8.3283769242       -0.4922324253        0.5472101854
 H        -7.4057791885       -1.7990933129        1.0645004960
 H        -6.5523628679       -0.3735334358        0.8571548118
 H        -9.7778865300        1.5462045482       -3.5700577949
 H        -8.0644497563        1.5143006476       -3.7753926649
 H       -10.5502738420        0.4303278776       -8.4723500228
 H       -11.8438473844        0.3878875499       -7.2696581126
 H       -11.5729160724        1.9077556773       -7.9725127543
 H        -6.8297793934        0.2141017730       -5.7709903268
 H        -7.5272736836        1.8019509128       -5.8074282509
 H        -7.3207135371        0.9875270014       -7.2692984979
 H        -8.6745776065       -0.7812365378       -7.9542639609
 H        -8.3292050968       -1.7534666352       -6.5353337695
 H       -10.0149563183       -1.6271177012       -7.0571293766
 Na        0.3640191357        1.9069264144       -0.2522079156
