155

 C         7.2746420067       -7.9953767092        2.2296123215
 C         7.2370635621       -6.5483633274        2.6272593372
 C         6.0802856035       -5.5364730410        2.1718658140
 C         4.6485969197       -6.0104487187        2.7606556353
 C         4.4797131920       -6.0623563672        4.2877271821
 C         6.3848097597       -3.9149846773        2.4669606749
 C         6.0000323287       -5.5540170358        0.6594494339
 O         8.0879533181       -6.2434740206        3.4566474973
 O         3.7353370303       -6.0502371894        1.9606122937
 C         3.1680021320       -5.5093724093        4.8579608739
 C         2.9808096554       -3.9590399685        4.7222044258
 C         1.5613687524       -3.3831283694        4.5466233366
 C         1.6068827728       -1.7352163183        4.9807786447
 C         1.8670223127       -0.7195835801        3.8973498467
 O         3.8905555874       -3.1465684208        4.6545174135
 O         1.3313487767       -1.3944264141        6.1252876945
 C         1.1134944357       -3.4714191387        3.1229708922
 C         0.4160356919       -4.1019130641        5.3986982019
 C         1.5295425743        0.7310822111        4.2077139783
 C         0.7012309342        1.2976782214        3.0040759401
 C        -0.1992139519        2.5736603843        3.1223117800
 C         0.6891995238        3.6036180468        2.1555894877
 C         1.3652732713        4.8395391958        2.8640830473
 C        -1.5340077194        2.2941842691        2.3129517111
 C        -0.5161647607        3.1397711462        4.4793942117
 O         0.5745728887        0.6648803550        2.0032634749
 O         0.8098898485        3.3990888068        0.9435969752
 C         2.5563235858        5.3750208795        2.0186519843
 C         3.4833188965        4.3034058303        1.4776893523
 C         4.8651528711        4.5536318607        0.7066087941
 C         4.7953523556        3.3851193512       -0.3245537355
 C         5.5719546851        2.1019372231        0.0132219839
 O         3.5064544902        3.2224659643        2.0336616576
 O         4.1860574968        3.5083594311       -1.3292812579
 C         5.0087105193        5.9225587797       -0.2043328246
 C         5.9794314949        4.5989453337        1.7202370753
 C         5.2786368849        0.9395186169       -0.9836519302
 C         3.8163369087        0.9165887877       -1.4308915994
 C         3.3024004479        0.8880325445       -2.9886562807
 C         1.6946784601        1.2479336936       -3.1428860981
 C         1.3417135830        2.3135446978       -4.1633489844
 C         4.1464275343        1.7806001302       -3.8579937518
 C         3.4952617011       -0.5860684690       -3.3159030616
 O         2.9453709022        0.8451248805       -0.5694742713
 O         0.8483728933        0.5584027806       -2.5939216951
 C        -0.2539343730        2.4236641673       -4.1719374650
 C        -0.9332506532        2.6577023468       -2.7373363928
 C        -2.3012722234        2.1106029812       -2.4717535593
 C        -2.3042897044        0.7747194361       -1.4865353272
 C        -3.2055033475       -0.4780958346       -1.8516076323
 O        -0.3454714606        3.1636961465       -1.7410373377
 O        -1.5430005270        0.5667707350       -0.5458255234
 C        -3.0772099780        3.0855421813       -1.5362390234
 C        -3.1872279264        1.9102377942       -3.7536344540
 C        -4.2225925273       -0.4768984791       -0.7569282743
 C        -5.2890192826       -1.5945928450       -0.6843203785
 C        -6.8235913374       -1.2134300216       -0.8702439430
 C        -7.1567275262       -0.1273458263       -1.9542859917
 C        -8.5901065069        0.5395358511       -1.9312487003
 C        -7.7401283881       -2.4225764480       -1.3814827699
 C        -7.1655330947       -0.7566411214        0.5304675991
 O        -4.9335900964       -2.7363980947       -0.5442465492
 O        -6.3376952141        0.2902671190       -2.7485904315
 C        -9.1680193066        1.0304055274       -3.2948126721
 C        -9.0954157374       -0.0395062963       -4.3589379438
 C        -9.2495071486        0.2109069540       -5.9191714877
 C       -10.5238084840        1.1287239880       -6.1603366647
 C       -11.2332906165        0.9754781434       -7.5310482604
 O        -8.9799479388       -1.2047051802       -4.0014179455
 O       -10.9948451234        1.8771193511       -5.2991273229
 C        -7.9241717430        0.8160536780       -6.4910544583
 C        -9.4626010781       -1.1770694987       -6.5005652102
 H         8.2779356279       -8.2312500645        1.8838083658
 H         7.3183311979       -8.5774284351        3.1632697053
 H         6.4235695399       -8.3891077318        1.5674468849
 H         4.4140463810       -7.1371070887        4.4537054979
 H         5.2920308655       -5.5940526220        4.7585888189
 H         7.4223709746       -3.7512374464        2.0675955973
 H         6.3518583498       -3.6051204609        3.4707024972
 H         5.5784520279       -3.3886982364        1.9664730221
 H         5.9460043660       -6.6196106788        0.3498174284
 H         5.1394653621       -5.0491000977        0.2251642525
 H         6.9085520927       -5.1800116573        0.3532465508
 H         2.3401535072       -5.8223409988        4.1754763044
 H         3.0148591256       -5.8881607349        5.8539666996
 H         2.9610490543       -0.8874557066        3.6441793566
 H         1.3544374962       -1.1106782856        2.9906135319
 H         0.9454733095       -4.4894569056        2.7447341025
 H         1.6326980693       -2.8733140284        2.4065371089
 H         0.0880721638       -3.0592181796        3.1354483657
 H         0.3275984251       -3.7769299391        6.4116551856
 H        -0.5719614573       -3.7915267270        4.9720488922
 H         0.5816196857       -5.1970577384        5.3691088782
 H         2.4268287451        1.3410807040        4.5606212485
 H         0.7426722246        0.7579672827        4.9496317916
 H         0.6063087561        5.6368508176        2.9720220162
 H         1.7558904984        4.5499013682        3.8765405087
 H        -2.2957585413        3.1511684766        2.4735032833
 H        -1.9404105677        1.4266729266        2.7835004323
 H        -1.3713056929        2.2621903351        1.1941587775
 H        -1.0321150877        2.5449737919        5.1772053580
 H         0.2674960257        3.6109836621        5.0985572780
 H        -1.2355878322        3.9153351965        4.2423403358
 H         2.1682928824        6.0699727575        1.2712934458
 H         3.2338465775        5.9923116447        2.6440995517
 H         6.6302811727        2.2722862449       -0.0251136321
 H         5.3182596972        1.8027612129        1.0438028381
 H         4.7920144247        6.7426670396        0.4417157766
 H         4.2653878456        6.0740075582       -1.0137443207
 H         6.0106961232        6.0322746395       -0.7058877052
 H         6.8893581136        4.6959873355        1.1246599432
 H         5.8836186704        5.4159719953        2.4761688918
 H         6.0447407269        3.6414590075        2.2540211855
 H         5.5103692436       -0.0251647017       -0.6432941611
 H         5.8745718813        0.8853888013       -1.9021418824
 H         1.7844542847        3.2812563033       -4.0334933511
 H         1.6333596372        2.0175273794       -5.1661971937
 H         4.7831532232        1.1625232878       -4.4681261787
 H         4.6836130235        2.5475464240       -3.3663670875
 H         3.5499238121        2.3306532007       -4.6104130288
 H         4.4458069722       -1.0299043023       -2.9372607238
 H         2.8020057430       -1.1123006736       -2.6330762304
 H         3.3473083375       -0.8731602629       -4.3374756919
 H        -0.5630843873        3.2162336831       -4.8497981802
 H        -0.6429076155        1.5123322640       -4.6639684301
 H        -3.8051249459       -0.2925023462       -2.7693770352
 H        -2.5524157968       -1.2604190946       -1.9790118002
 H        -2.6488502203        3.1861333634       -0.5870852790
 H        -4.0497778712        2.6024769020       -1.3056960807
 H        -3.1579005202        4.0199325848       -2.1154163719
 H        -4.1676159904        1.5992805944       -3.4646402562
 H        -3.3431780191        2.9933120139       -4.0865631272
 H        -2.7233320250        1.1090222346       -4.2685742199
 H        -4.7313032228        0.5003418867       -0.7337129407
 H        -3.5590088229       -0.5265365927        0.1339775653
 H        -9.3225651417       -0.1655598126       -1.4470714662
 H        -8.6068285014        1.4191554290       -1.2810617645
 H        -7.4660838076       -3.3778540687       -1.0006331022
 H        -7.7213486804       -2.3500541711       -2.4834543411
 H        -8.8119708146       -2.3003480380       -1.2034399960
 H        -8.2113026618       -0.8260395466        0.8577286948
 H        -6.6352940697       -1.3261109949        1.2407574995
 H        -6.9727772669        0.2618216228        0.7517233910
 H       -10.1608572868        1.4233503370       -3.0840463971
 H        -8.5368551127        1.8796194307       -3.6341276689
 H       -11.0569224401        0.0890429700       -8.0924832870
 H       -12.3440675862        1.0993572566       -7.4330133854
 H       -10.9598816435        1.8106363572       -8.2056940965
 H        -7.2622700336       -0.0522302299       -6.6405087063
 H        -7.4828773199        1.5515186151       -5.7759359354
 H        -8.0249600948        1.2921750796       -7.5268989830
 H        -9.4197696254       -1.3651048561       -7.5705803567
 H        -8.6171995109       -1.7349786532       -6.0222434015
 H       -10.4169906613       -1.5311200356       -6.1091564040
 Na        0.4341153621        1.3268161074       -0.3224166154
