155

 C         7.0343472603       -7.9704535218        2.0643273358
 C         7.2000338906       -6.4765521056        2.4687330882
 C         6.0025435828       -5.6467351804        2.1311849913
 C         4.5590416885       -6.0682103889        2.6898892044
 C         4.3523995595       -6.0123842594        4.2576001528
 C         6.3567785273       -4.2854170425        2.7141480513
 C         5.9134502661       -5.6846659735        0.5391912746
 O         8.0656860997       -6.0435948584        3.1686449527
 O         3.6264443782       -6.2355631041        1.9380883490
 C         2.8726319958       -5.4879032282        4.5659051201
 C         2.8889173331       -3.9333150515        4.6714282792
 C         1.5648993966       -3.2921489057        4.4535167829
 C         1.6039020043       -1.7484934223        4.9588854362
 C         2.2411076773       -0.5749650262        4.0841147103
 O         3.9451505434       -3.4052407393        4.9106510754
 O         1.1256409997       -1.4369802389        6.0295696324
 C         1.1144847852       -3.4406542659        2.9127243125
 C         0.5506929298       -3.9731416905        5.3648071293
 C         1.5006561458        0.8165829902        4.1719427064
 C         0.6567303666        1.2435030828        2.9691488015
 C        -0.2011929789        2.5649785032        3.0414026521
 C         0.7198453924        3.5781828848        2.0647263085
 C         1.3577013449        4.9554266394        2.5693068677
 C        -1.6399122682        2.5946752890        2.3401888863
 C        -0.3016299671        3.1566466370        4.4494311598
 O         0.6591984069        0.5903806107        1.9194750551
 O         0.7532178575        3.3755628781        0.8915335676
 C         2.4170447232        5.3633491741        1.5406367577
 C         3.5412140590        4.3158286224        1.5346767330
 C         4.8653878221        4.5405278089        0.7333516809
 C         4.8417854199        3.4731753349       -0.4198524279
 C         5.6310707782        2.2236323878       -0.2740275486
 O         3.4016323375        3.2885567966        2.1330420419
 O         4.1621022245        3.6177347831       -1.4524935507
 C         4.8749147970        5.9711592083        0.1972954990
 C         6.1679457750        4.3581992584        1.6732190489
 C         5.3275633113        1.2259968591       -1.3646167625
 C         3.7375762311        1.0115500591       -1.5275035266
 C         3.3131325623        0.7797597937       -2.9744577317
 C         1.8139448889        1.0862920767       -3.0701021864
 C         1.2974139729        2.1764483788       -4.0345504758
 C         4.2180392105        1.5882579410       -3.9922828256
 C         3.5188689001       -0.7012451159       -3.3439850338
 O         3.0609340651        0.9614222448       -0.5357974285
 O         1.0988681690        0.3966787041       -2.3535881548
 C        -0.2270230525        2.3797274864       -4.0551058035
 C        -0.7519678198        2.6063200688       -2.6845997186
 C        -2.3300495357        2.1604260703       -2.3972744588
 C        -2.3788692630        0.7488377838       -1.5317706298
 C        -3.4490153956       -0.3269679049       -1.8604123347
 O        -0.1255238626        3.2186519990       -1.8493592864
 O        -1.4948709974        0.4833355470       -0.7542611317
 C        -2.8957081291        3.1111633964       -1.3424590073
 C        -3.1173885018        2.0065428766       -3.6932707945
 C        -4.3596408166       -0.3527989682       -0.5655899117
 C        -5.3854786909       -1.4864114102       -0.5861624850
 C        -6.8363105309       -1.1216066961       -0.9350300485
 C        -7.0607566053       -0.0164477783       -2.0405886838
 C        -8.4152174369        0.7011369719       -1.9075991668
 C        -7.5792591348       -2.4776388708       -1.1671985867
 C        -7.3270119074       -0.5869204569        0.4651428200
 O        -5.0311378560       -2.6342478445       -0.4232234585
 O        -6.2211194085        0.2578207895       -2.9069437843
 C        -8.9685117235        1.1275117781       -3.3021750008
 C        -9.1227759022       -0.1707708097       -4.1812864213
 C        -9.4640115719        0.1022603942       -5.7338530917
 C       -10.7587525508        0.9796678186       -5.9373036317
 C       -11.3149370221        1.1396434393       -7.3100609059
 O        -8.8270386379       -1.2350243807       -3.7238571407
 O       -11.2472234940        1.4800240596       -4.9753981118
 C        -8.2125921063        0.8662814554       -6.3929939590
 C        -9.6846468618       -1.2313114868       -6.5187545025
 H         7.5162949953       -8.3137569098        1.1090129606
 H         7.5686658233       -8.6326811193        2.7611986302
 H         6.0247382539       -8.0607574704        2.1767244022
 H         4.4378904894       -7.0741760549        4.6871384440
 H         5.0567835292       -5.2487265343        4.6758177983
 H         7.3390148704       -4.0823991147        2.3059031255
 H         6.5770359922       -4.3297285025        3.8506007165
 H         5.5679829782       -3.5330625755        2.5177244393
 H         6.1528023178       -6.6594591133        0.1226425453
 H         4.8796450132       -5.3434867882        0.3220834084
 H         6.6845724845       -4.9107590249        0.1316629673
 H         2.1171476740       -5.8120932476        3.8221807914
 H         2.6328149031       -5.8363709812        5.6169696327
 H         3.2367534570       -0.5560819969        4.4586149567
 H         2.3308213237       -0.8416268607        3.0557904623
 H         1.0441126979       -4.4998013670        2.6331072004
 H         1.9029087258       -3.0017550217        2.2653644300
 H         0.2010663544       -2.9505093423        2.5887285339
 H         1.0448709457       -4.4269629813        6.2441710714
 H        -0.0308094600       -3.2414849604        5.8595248489
 H         0.0108580668       -4.7606598303        4.8775898883
 H         2.3223605980        1.5139100492        4.0656857249
 H         0.9826913937        1.0507402941        5.1480628020
 H         0.6547662028        5.8144960935        2.6316678810
 H         1.7965854863        4.8654966456        3.5561428086
 H        -1.8785695783        3.5891723300        2.4271700850
 H        -2.4044943346        2.0375576223        2.8893403465
 H        -1.6149557086        2.4025443575        1.2936505715
 H        -0.9948192352        2.5052728384        5.0773901967
 H         0.5791227624        3.1293591893        5.0650962488
 H        -0.6743560209        4.2114600393        4.5161816845
 H         1.8851007211        5.5011133485        0.5952530797
 H         2.7315258620        6.3438761534        1.8880398868
 H         6.7002356082        2.4609357162       -0.4509798399
 H         5.5603901032        1.7899595144        0.7330377480
 H         4.2947161855        6.7129647731        0.7765779111
 H         4.3445935816        5.9996332608       -0.7497569038
 H         5.8547918510        6.3177930657       -0.0054140652
 H         7.1533054379        4.3335369008        1.1853082293
 H         6.0193384111        5.1340893966        2.3994459149
 H         6.0617140766        3.4138693507        2.2302620342
 H         5.7891749050        0.2175132581       -1.0822571200
 H         5.7932772995        1.4268718660       -2.3207869180
 H         1.7654716764        3.1842081127       -3.8430532717
 H         1.5814812096        1.9209158195       -5.1054852628
 H         5.2786000862        1.3358392780       -3.9250877984
 H         4.0045666002        2.7047649352       -3.8372439752
 H         3.9723887744        1.4239418398       -5.0681261407
 H         4.5487028893       -0.9962165262       -3.1737254660
 H         2.9779955100       -1.4024622130       -2.7527116125
 H         3.3215874065       -0.7828484695       -4.4395053079
 H        -0.5782859901        3.1583210083       -4.7584109247
 H        -0.6717277771        1.4625191801       -4.4242442479
 H        -4.0556695405       -0.1667922681       -2.7337188374
 H        -2.8703058355       -1.3278745725       -1.9589754278
 H        -2.0313063951        3.4458676986       -0.6753200385
 H        -3.5672553187        2.6053634441       -0.6480964578
 H        -3.3804483838        3.9670570740       -1.8428051973
 H        -4.1805493512        2.0822273098       -3.4086897818
 H        -2.9046119170        2.8376769386       -4.2984994897
 H        -2.8291981124        1.0132972622       -4.0595779775
 H        -4.8907301858        0.6226985487       -0.3050263895
 H        -3.6362206909       -0.5245561230        0.2749692681
 H        -9.1606215096        0.2287086329       -1.2758850272
 H        -8.1385501688        1.6547469642       -1.3698099291
 H        -7.3776966887       -3.1798894544       -0.3102408994
 H        -7.4062245063       -2.8779561044       -2.1612532923
 H        -8.6739750059       -2.3133200570       -1.2354590254
 H        -8.3448155821       -0.2942215114        0.5567778157
 H        -7.0562722919       -1.1078477116        1.3940034359
 H        -6.8834867092        0.4227372814        0.5716411157
 H        -9.8578542352        1.7410718118       -3.1568148938
 H        -8.1913107347        1.7172205055       -3.7693985422
 H       -11.4184578437        0.1229589768       -7.7898751510
 H       -12.2993829271        1.5950911438       -7.3249699196
 H       -10.6540032942        1.6651861304       -8.0255015519
 H        -7.3925534060        0.1818592483       -6.4892839562
 H        -7.9111880053        1.6282430529       -5.7184959886
 H        -8.4038888779        1.2408025228       -7.3406793517
 H        -9.4307559264       -1.0812404956       -7.5683038224
 H        -8.9913688536       -1.9453085865       -6.1768619796
 H       -10.7371621157       -1.5852214669       -6.4989200954
 Na        0.7800440958        1.1902712524       -0.1500822974
