155

 C         6.8864002940       -8.2006134015        2.1273251388
 C         7.0673127260       -6.6644055562        2.3982346728
 C         5.8992097358       -5.5190331919        2.0653884634
 C         4.5094124126       -6.0530456367        2.6147480520
 C         4.2403356877       -6.1257930739        4.1033618083
 C         6.0876157527       -4.1021138873        2.5758743206
 C         5.7583952755       -5.3751847335        0.5650754986
 O         8.0919285962       -6.2823225341        2.9350262270
 O         3.6499196927       -6.5103461239        1.8758723382
 C         2.9516554398       -5.3857698477        4.4285293583
 C         2.9155777159       -3.9313862932        4.6480939936
 C         1.5038221689       -3.1644753613        4.4505807261
 C         1.5898739278       -1.6682541290        4.9023282027
 C         2.2409478205       -0.5655926826        4.0705469004
 O         3.9009064379       -3.3026318066        5.0058299522
 O         0.9290652573       -1.2029318579        5.7781813427
 C         1.1726343857       -3.0988232377        2.8981531480
 C         0.3443841646       -3.9150132412        5.2351661828
 C         1.4705198218        0.7148068140        4.2784851646
 C         0.7557743877        1.1628760220        3.0121620255
 C         0.1195238894        2.5448838482        3.0080689123
 C         0.6677282493        3.5358826022        1.9651784599
 C         1.1509944737        4.8936918281        2.3237914519
 C        -1.3327357967        2.3052297607        2.5012292482
 C         0.1179326831        3.2500016831        4.4518221270
 O         0.5578273177        0.3814273846        2.0998532712
 O         0.7531672181        3.1970411041        0.7780958964
 C         2.4046909798        5.2505559742        1.3456530478
 C         3.5871912701        4.3000634272        1.6507439280
 C         4.9077704796        4.6537499365        0.7950899938
 C         4.8502695885        3.6541110491       -0.4218003915
 C         5.5799518188        2.3652221268       -0.2631645753
 O         3.5088513363        3.2783832372        2.3695530269
 O         4.2502258802        3.9118352327       -1.4341541888
 C         4.9880725106        6.0184792023        0.2053744038
 C         6.1075238071        4.2893399475        1.7977408741
 C         5.5681367966        1.3540856308       -1.4539392025
 C         4.0396624330        1.0861908517       -1.7390154538
 C         3.4062864573        0.6654002540       -3.1423650128
 C         1.8444555844        0.9629175038       -3.1583323190
 C         1.2939198492        2.1753239869       -3.9485138657
 C         4.0275573233        1.4253420618       -4.3054159679
 C         3.5986172528       -0.9464812979       -3.2569813076
 O         3.3116589337        1.1235814692       -0.7502370610
 O         1.1299835023        0.2869817989       -2.4594007996
 C        -0.2086617173        2.0023965386       -3.9654444187
 C        -0.8096035195        2.4068531868       -2.5659442035
 C        -2.2616321090        2.1262277236       -2.2890404461
 C        -2.2189307655        0.7749246123       -1.4947914276
 C        -3.4735780739       -0.1081736720       -1.7186523775
 O        -0.0441569595        2.9508705236       -1.8091853109
 O        -1.2232757982        0.4413843277       -0.8896241937
 C        -2.7726746421        3.1853853477       -1.3039580741
 C        -3.1878223431        2.3130238992       -3.6303720843
 C        -4.3380768491       -0.1653437865       -0.5018328224
 C        -5.4146517068       -1.3623767390       -0.4980284983
 C        -6.9239181032       -1.0325491745       -0.7033006306
 C        -7.0530562616       -0.0460962198       -1.9260291436
 C        -8.3529614181        0.9030464832       -1.9660977382
 C        -7.7085018051       -2.3169641350       -1.1420283460
 C        -7.5067926355       -0.4139782021        0.5388242721
 O        -4.8989150789       -2.4398926590       -0.4941186951
 O        -6.1865962098       -0.0277203226       -2.7564022109
 C        -8.6943905712        1.0752632459       -3.4634494232
 C        -9.0773302348       -0.1580717971       -4.2103190849
 C        -9.5996502101        0.0652530812       -5.6595146323
 C       -10.9485999827        0.8597843607       -5.6390689782
 C       -11.3955885307        1.3130267816       -7.0125706583
 O        -8.8936667242       -1.2797907053       -3.7324806775
 O       -11.5613692256        1.2082863431       -4.6224965166
 C        -8.5382241200        0.8837383529       -6.3969056527
 C        -9.7350447200       -1.4374945987       -6.2510005866
 H         6.7649136905       -8.3194188239        1.1246993798
 H         7.8504518971       -8.6786060268        2.2179275715
 H         6.0870885166       -8.6216343189        2.8203995068
 H         3.9425456042       -7.0552822340        4.3344509006
 H         5.1206120170       -5.6883239724        4.5770393391
 H         6.7243959151       -3.4923961713        1.9647699845
 H         6.5552123278       -4.1511198455        3.4915558665
 H         5.0827415265       -3.7131621803        2.6048415197
 H         5.4129643637       -6.3782946652        0.1728691178
 H         5.1074223415       -4.5201756528        0.3938910399
 H         6.6998393414       -5.1911205303        0.1601262511
 H         2.3240619292       -5.6147263541        3.6072651730
 H         2.5850916012       -5.7841405323        5.3312090808
 H         3.2940773475       -0.5087712501        4.4828678960
 H         2.3631261446       -0.9194835779        3.0174349644
 H         0.9770448200       -4.0676598282        2.4767589793
 H         2.0367084736       -2.7927496152        2.3031433258
 H         0.3362420772       -2.4547492985        2.6360799291
 H         0.7624283048       -4.2232329837        6.1816836326
 H        -0.4879510975       -3.2730490900        5.5862382443
 H         0.0228594917       -4.8182056715        4.7067771083
 H         2.0967465597        1.4750068079        4.7786510296
 H         0.7528002641        0.4811825294        5.0248816864
 H         0.3160470052        5.5742329337        2.2745681270
 H         1.4165136067        4.9954844467        3.3997019693
 H        -1.8605437687        3.2397093035        2.1178132525
 H        -1.9135465601        1.8496505066        3.2975173704
 H        -1.1566304909        1.6084544153        1.6967626610
 H        -0.1764198614        2.7266975418        5.3337131508
 H         1.1388607107        3.5993459517        4.7129313028
 H        -0.3606636299        4.1897547176        4.3190082262
 H         2.1168016746        4.9727508479        0.3155737531
 H         2.5753241129        6.3360188373        1.3630916656
 H         6.6189932313        2.4515202875        0.0999651551
 H         5.0257328408        1.8257887916        0.5292973029
 H         5.4143651949        6.7287402071        0.9097937490
 H         3.9951197247        6.3862783278       -0.0474500599
 H         5.6476865291        6.0526745766       -0.7181486890
 H         6.9218478943        4.0938432237        1.1250908679
 H         6.3095869401        5.1073370430        2.4963131423
 H         5.9222781295        3.3741762367        2.3494127611
 H         5.9101030796        0.3663378401       -1.1844911608
 H         6.0082412930        1.6257663613       -2.4265648517
 H         1.4777881038        3.0787332773       -3.4200603704
 H         1.6411113236        2.2887808451       -4.9317740060
 H         5.0390388808        1.0583086342       -4.5111461940
 H         4.0531619656        2.4541645453       -4.1807374984
 H         3.4980071374        1.2575322922       -5.1674203772
 H         4.6469311592       -1.2333587456       -3.2406478453
 H         3.1823006964       -1.4317123563       -2.3260663321
 H         3.1690108245       -1.3412963774       -4.1462198040
 H        -0.7277172188        2.6438919991       -4.6787075915
 H        -0.4442886453        0.9611529023       -4.3019688044
 H        -4.0780516872        0.1866116663       -2.6198569441
 H        -3.1284982581       -1.0913126735       -1.8546978033
 H        -2.2164223512        3.2391783287       -0.3908455921
 H        -3.8388322685        2.8611972941       -1.0724599381
 H        -2.8364723695        4.1558623899       -1.7697923479
 H        -4.1729937945        2.1491137256       -3.2715732541
 H        -3.0993812204        3.4240807590       -3.8221154174
 H        -2.8086785822        1.7844237337       -4.5640273076
 H        -4.7846064929        0.7478267026       -0.2030135616
 H        -3.7569419763       -0.3506980226        0.3725839805
 H        -9.1590085817        0.3286292661       -1.5281222715
 H        -8.2908687730        1.7956930515       -1.4110325275
 H        -7.9446599305       -2.9705182507       -0.3444633205
 H        -7.1409271808       -2.8408714008       -1.8970385033
 H        -8.5912540833       -2.0827314073       -1.6593350519
 H        -8.5233420783       -0.0010919217        0.3600399774
 H        -7.6434700142       -1.1849229372        1.2964944755
 H        -7.0310107108        0.3911960093        1.0875646341
 H        -9.5787954568        1.7404417147       -3.5770452863
 H        -7.8051255462        1.5025592481       -3.9730710366
 H       -11.9508370736        0.6136340813       -7.5707068327
 H       -12.0198301051        2.1725583728       -6.9090806506
 H       -10.5720943929        1.4622469005       -7.6835495806
 H        -7.5838406997        0.9456950748       -5.8800322108
 H        -8.8506394302        1.9291439742       -6.4420117770
 H        -8.3926837443        0.4213551828       -7.4039915621
 H       -10.1003741334       -1.4868155053       -7.2637249811
 H        -8.7473271015       -1.9661435173       -6.2319550198
 H       -10.4471936182       -1.9159632591       -5.6584507963
 Na        0.8221761752        1.3283783299       -0.2943221848
