155

 C         5.4336816167       -8.2593492403        1.6322152685
 C         6.1096568208       -6.8607448684        1.9638564600
 C         5.2663721394       -5.6287868252        1.6914157451
 C         3.8074349125       -5.8212217893        2.2208540467
 C         3.5927196154       -6.1403387142        3.7391226541
 C         6.0237641013       -4.3552208506        2.2374153559
 C         5.2260706208       -5.2498663777        0.1412152695
 O         7.3211001066       -6.7978151835        2.3188789426
 O         2.8065498015       -5.8828151278        1.4950059744
 C         2.4322863100       -5.3792526109        4.4209569899
 C         2.6339124917       -3.8796388921        4.1628743267
 C         1.4068535667       -3.0350705180        3.7541898780
 C         1.7132950779       -1.4656526269        3.9689717004
 C         3.0560205176       -0.6679301272        4.0608367001
 O         3.7099875930       -3.3496678631        4.3435061864
 O         0.6813294949       -0.7949983680        4.0353689808
 C         1.2297547945       -3.3894793688        2.2698375862
 C         0.2335254294       -3.4876600400        4.5784230837
 C         2.5402165680        0.7655024387        4.2779651498
 C         1.9346706529        1.3266051371        2.9947732963
 C         0.9385632809        2.5273562963        3.0442021948
 C         1.2762276565        3.6622237649        1.8836222638
 C         1.6260171718        5.0881616077        2.2195096290
 C        -0.4681194830        1.9611967713        2.6823311362
 C         0.8251952681        3.2004830065        4.4681997258
 O         2.3252506508        0.8402275465        1.9341460358
 O         1.2348480520        3.3452761990        0.7141824135
 C         2.8908895289        5.5053706357        1.3737371751
 C         4.0216003335        4.6006747344        1.6022198575
 C         5.4708198505        4.8669195912        1.1549027432
 C         5.2573060685        4.4730599161       -0.5194560061
 C         5.6779181943        3.0502311269       -1.0544119005
 O         3.8681393691        3.6908620430        2.3377242330
 O         4.6925419141        5.2854204954       -1.2033552441
 C         5.8163316233        6.3999781866        1.2600311974
 C         6.6280001048        4.0459535814        1.6351409366
 C         4.9392489247        2.6004325932       -2.3552204966
 C         3.8511810653        1.5355168710       -2.0093399854
 C         3.4334495771        0.4176085040       -3.0398944549
 C         1.9149428013       -0.0031412977       -3.1274828893
 C         1.0434303777        0.3844844287       -4.4216476850
 C         4.0268417377        0.7238245719       -4.4557605840
 C         4.2838232096       -0.8666139773       -2.4861147844
 O         3.4566800440        1.5404328046       -0.8714622038
 O         1.3274112224       -0.5694202591       -2.2065197472
 C        -0.3900058909        0.5669710661       -3.9565352596
 C        -0.3797690614        1.5398895309       -2.7464582361
 C        -1.7562970671        1.6860831478       -1.9296391777
 C        -1.8844547969        0.3175202857       -1.2536558538
 C        -3.2036261098       -0.4804009257       -1.2011719542
 O         0.6398166098        2.1640114208       -2.4487131160
 O        -0.9675984508        0.0263790949       -0.4209533650
 C        -1.7870601333        2.8268790939       -0.9215482506
 C        -2.8530897551        1.9711699178       -3.0312636617
 C        -4.2848451116        0.2094586311       -0.3781404331
 C        -5.5126775577       -0.8119441485       -0.2654785515
 C        -7.0387451043       -0.3051768543       -0.2023609590
 C        -7.2809152401        0.3702144446       -1.6672644344
 C        -8.6757418933        0.5964342373       -2.0736980352
 C        -7.9539941702       -1.5522112247       -0.0717187008
 C        -7.2816173533        0.8903080778        0.8157669554
 O        -5.2882597509       -1.9936424907       -0.1149782986
 O        -6.3355469932        0.6315174966       -2.4057811067
 C        -9.0425218995        1.1231943983       -3.4960457406
 C        -9.5712366028       -0.1291448612       -4.1356628909
 C       -10.6907386686       -0.1913607307       -5.2241417193
 C       -12.0424120487        0.3315278623       -4.5702075934
 C       -13.0855961548        0.9825726201       -5.5172527540
 O        -9.0237942585       -1.1892062629       -3.8024207546
 O       -12.2254975637        0.2890713893       -3.3579536946
 C       -10.3463379565        0.7063006302       -6.4606213231
 C       -10.8517246775       -1.7165854645       -5.5696375149
 H         4.4740184522       -8.1339046455        0.9967346760
 H         6.3050823641       -8.8302025039        1.3587523109
 H         5.1480025042       -8.7048699208        2.5098371729
 H         3.5193107103       -7.2058726616        3.7167016855
 H         4.5110274922       -6.2018561357        4.2929995389
 H         7.0577645228       -4.5041655941        1.9118986850
 H         6.1500853861       -4.1868791258        3.3644937036
 H         5.4818940536       -3.4792509647        1.8898571085
 H         4.6585712439       -5.9743498430       -0.3420558313
 H         4.8175638168       -4.2787356258        0.1226458909
 H         6.3188844509       -5.2451651914       -0.1481705894
 H         1.4163213798       -5.7929485292        4.2686943915
 H         2.5059793747       -5.4928950116        5.5675627030
 H         3.7268350814       -1.0025937420        4.8303955062
 H         3.5581607649       -0.6933616044        3.1132569757
 H         1.2911200200       -4.4400662901        2.1735026945
 H         2.0024713622       -2.8662238822        1.6596156056
 H         0.3282104990       -3.0581914572        1.7765371366
 H         0.4493415833       -3.1803268126        5.6496214796
 H        -0.6193246356       -2.8967677584        4.3370177385
 H         0.1085915162       -4.5465402473        4.6300788957
 H         3.3937982757        1.4224035745        4.6089772802
 H         1.8035593250        0.7925413043        5.1230816602
 H         0.8370776881        5.7528646632        1.9184374909
 H         1.8814023092        5.2664703587        3.2876195493
 H        -1.0938112784        2.8376304652        2.4847795090
 H        -0.9283791076        1.3384624253        3.5265768996
 H        -0.3549812768        1.3966657307        1.7008865163
 H         0.4785868916        2.4533225535        5.2230466559
 H         1.8537494576        3.4333770573        4.7019258090
 H         0.2443555221        4.1029793687        4.3414366900
 H         2.5039900666        5.6030698887        0.3429030340
 H         3.2147806427        6.4789381309        1.7500094621
 H         6.7818687088        2.9692328765       -1.2668850416
 H         5.6187211035        2.3056283489       -0.3077973390
 H         5.1886796620        6.6742476497        2.1566565329
 H         5.5165380422        6.9908040757        0.3726554862
 H         6.8676980067        6.4790302021        1.4906542459
 H         7.4358547204        4.0322324356        0.8613323739
 H         6.9622149395        4.4535003804        2.5695998180
 H         6.1683567325        3.0955640189        1.8522519127
 H         5.7554915117        2.2229132290       -3.0249287448
 H         4.3848755727        3.4872850394       -2.6976463825
 H         1.4737945743        1.3379068654       -4.9248266267
 H         1.2358588513       -0.3928297402       -5.1856619956
 H         5.0559781904        0.4571539225       -4.4917316264
 H         3.8043223752        1.8058492603       -4.6995479511
 H         3.4587285378        0.1941540223       -5.3464805844
 H         5.3034548094       -0.5820826204       -2.4434947630
 H         3.9964796464       -1.2738522480       -1.5228689561
 H         4.1587017198       -1.5570214215       -3.3715638307
 H        -1.0221456307        0.8662404284       -4.7658381895
 H        -0.6863965613       -0.4463408933       -3.6402162742
 H        -3.7602580532       -0.5831191770       -2.1516046155
 H        -3.1142875724       -1.5546614357       -0.7413157156
 H        -1.0624548776        2.5405193942       -0.1011827994
 H        -2.7030566227        2.9718347227       -0.3369967730
 H        -1.3917222981        3.7331645206       -1.3122947521
 H        -3.8503563396        2.3263408726       -2.7033966559
 H        -2.6528722910        2.8754069610       -3.4702125103
 H        -3.0091616019        1.1287269051       -3.6675210060
 H        -4.7519640229        1.1329822240       -0.7419714294
 H        -3.9100620455        0.2873653487        0.6868446794
 H        -9.2128175596       -0.3752505051       -1.9650166400
 H        -9.0660357784        1.2612176262       -1.2243762834
 H        -7.6063352096       -2.1160149975        0.7993779162
 H        -8.0166918130       -2.1480709776       -0.9424708402
 H        -8.9510442587       -1.2919346635        0.2045485521
 H        -8.2554150977        1.3324130038        0.7081697681
 H        -7.0564414326        0.6196519741        1.8785245407
 H        -6.6239566963        1.6688609249        0.4955171031
 H        -9.7562274175        1.9410591794       -3.5736220534
 H        -8.2158457078        1.3508455992       -4.1550467745
 H       -14.0466691788        0.7900822122       -5.0051314019
 H       -12.9335007988        2.0166134194       -5.6880874334
 H       -13.0086738988        0.5742585434       -6.5307476832
 H       -10.5576955062        1.8113042617       -6.2093617409
 H       -11.0000681179        0.5248498466       -7.3582583914
 H        -9.2735404136        0.6766626060       -6.7690583034
 H       -11.3231823883       -1.8880779482       -6.5390689516
 H        -9.8530779647       -2.0826439944       -5.7107977147
 H       -11.3793842036       -2.3311238626       -4.7948989009
 Na        1.3660905616        1.0766438120       -0.1947608983
