155

 C         2.4511387637       -0.0837333586       11.6853302824
 C         2.5443973220        0.8693427716       10.5859585144
 C         3.8617448950        0.9266406612        9.7612377038
 C         4.0782424266       -0.2136301714        8.8091538435
 C         4.7249110862       -0.1283189116        7.4664875980
 C         3.7342316333        2.2968966496        9.0923952661
 C         5.1375571479        0.9729946580       10.7799437592
 O         1.6451890800        1.5935061992       10.2586551256
 O         3.6961572823       -1.3165993071        9.1637757337
 C         3.6205237751        0.0941899459        6.4360786363
 C         4.1422565125        0.5277134668        4.9754460906
 C         3.6170722807       -0.3643214624        3.6978580272
 C         2.1570103239       -0.3405078643        3.6204126012
 C         1.4584145199       -1.0296698382        2.4109796490
 O         4.8710058860        1.4517533669        4.8062258884
 O         1.4141645960        0.2660178567        4.4171282002
 C         4.0749002960        0.5410684363        2.4633780046
 C         4.2587090438       -1.7487927065        3.6418741769
 C         0.4929965919       -2.1615675903        2.7581440263
 C        -0.6398761118       -2.4828542977        1.6998903723
 C        -1.8844897416       -3.3133147005        2.1226012221
 C        -3.1253913242       -2.2496373337        1.9300103667
 C        -4.3662763196       -2.5049528839        2.8689296014
 C        -2.1731099845       -4.4176768271        0.9877512234
 C        -1.7944563784       -3.8908149563        3.5398527838
 O        -0.4340236895       -2.2944160596        0.5226057101
 O        -3.1711454964       -1.4658421442        0.9919312858
 C        -4.8704422072       -1.2796397784        3.6480721608
 C        -3.8253435240       -0.1322535830        3.9377370293
 C        -4.2546720524        1.3435324282        4.4300088288
 C        -3.7331304217        2.5143026291        3.5136539496
 C        -2.3079421430        2.7216240867        3.1959322647
 O        -2.6259478480       -0.3626815519        3.7493477069
 O        -4.5852736749        3.2718981676        3.0260872118
 C        -5.8130042716        1.4704397829        4.6230842964
 C        -3.6007306949        1.5316011418        5.8503378979
 C        -2.0040147916        3.3820585251        1.7776911694
 C        -1.5365364168        2.4510299437        0.6574905954
 C        -1.0359726263        2.9820013091       -0.6991524784
 C        -1.0287318511        1.7964086793       -1.7849649687
 C        -2.0727273052        1.9019612078       -2.8969562252
 C        -1.8764675831        4.1690591234       -1.1711143888
 C         0.4037026161        3.3784076493       -0.4900202557
 O        -1.7756436101        1.2728700765        0.7179303021
 O        -0.1435658279        0.9339036532       -1.6287638571
 C        -2.2994002687        0.6653598911       -3.8199841273
 C        -3.3125396152       -0.2909659804       -3.2544239768
 C        -4.2516059914       -1.1148379143       -4.1334714133
 C        -3.2120816890       -2.3111513402       -4.6290749915
 C        -3.6560156533       -3.2117567425       -5.9368581191
 O        -3.4838138638       -0.3748392638       -2.0281594182
 O        -2.0692789182       -2.3403077726       -4.1951963944
 C        -5.5127048471       -1.6856418862       -3.5239454945
 C        -4.7907074702       -0.4063609429       -5.4573571241
 C        -2.9785129939       -2.5826740421       -7.2143930062
 C        -1.6748552711       -3.2170020713       -7.6580174423
 C        -1.0809209495       -2.4396107822       -8.8781029277
 C        -0.5391955586       -1.0343981023       -8.4030577032
 C         1.0108273293       -0.7983936906       -8.4317922840
 C         0.0729302124       -3.2686381423       -9.4109475192
 C        -2.1565846701       -2.2053589219      -10.0092843227
 O        -1.1613554287       -4.0804505961       -7.0579612428
 O        -1.3008593660       -0.1021734144       -8.0740899927
 C         1.4588880738        0.4958928328       -7.7090089300
 C         2.8444906923        0.9136117260       -8.0998418411
 C         3.6073288755        1.9697089698       -7.0160627603
 C         2.6634657722        3.2728341821       -7.2179861720
 C         3.1279633911        4.2789665500       -8.2078449483
 O         3.3615539418        0.7844027963       -9.1754914751
 O         1.5600258846        3.3620248859       -6.7041079127
 C         3.5762112320        1.4149273013       -5.6165063807
 C         5.0490159885        2.0623313777       -7.5453848759
 H         3.3388635165       -0.0825620417       12.3345194757
 H         1.5711775182        0.1250819270       12.3015688718
 H         2.2924243759       -1.0346656757       11.3012844295
 H         5.4670312199        0.6016072749        7.4692502329
 H         5.2722629284       -1.1099539830        7.2719440644
 H         3.5270048858        3.0757463766        9.8124381408
 H         2.9213163909        2.2558313839        8.3255303136
 H         4.6196992119        2.6653133381        8.6699059614
 H         5.2604822190       -0.1635085472       11.0835297340
 H         6.0576245269        1.2276281588       10.2448902804
 H         4.8784009105        1.6344245632       11.5656434432
 H         2.9796081137       -0.8397180312        6.4270805438
 H         2.9132093561        0.7938061473        6.6914219408
 H         0.9470375030       -0.1766794123        1.9690506262
 H         2.1837839620       -1.4294417463        1.6727625662
 H         3.6524536966        1.5488777200        2.4901336830
 H         3.6579208433        0.0813947318        1.5086634631
 H         5.1612373691        0.6443710243        2.3506298227
 H         4.5209746971       -2.0421502587        4.6392992756
 H         3.5664498310       -2.3871228741        3.1789041053
 H         5.1590209332       -1.7075572954        3.1522062092
 H         0.0072409980       -2.0262432796        3.7400275745
 H         1.2090634257       -3.0597130878        2.7932133055
 H        -5.0615339513       -2.9236180429        2.2825836315
 H        -4.0382335293       -3.2135892010        3.6234399410
 H        -1.9319696997       -3.9357990816        0.0562940914
 H        -3.3107265265       -4.6054882287        1.0242017535
 H        -1.8539798608       -5.3661418877        1.2614347970
 H        -0.7695218086       -4.2698720314        3.7236772279
 H        -1.8564748773       -2.9671085869        4.1776192070
 H        -2.6159585928       -4.5949962004        3.7190562165
 H        -5.6109854990       -0.7763225195        3.0204025437
 H        -5.4805997243       -1.5586240255        4.5320368330
 H        -1.9759579879        3.3447575109        4.0345742728
 H        -1.7124193659        1.7580741231        3.3706028205
 H        -6.1584642076        0.6358046579        5.1299547478
 H        -6.3725401070        1.2955899884        3.7038305030
 H        -6.0619771289        2.3870240468        5.1627798747
 H        -4.2763338020        2.3157546459        6.3379047136
 H        -3.5036597919        0.6581618234        6.4997125597
 H        -2.6426209763        1.9872116662        5.8084654220
 H        -1.1458471520        4.0252772043        1.8597413853
 H        -2.9751257467        3.9265883083        1.5815415235
 H        -3.0182770948        2.4061960413       -2.5286834005
 H        -1.7354561950        2.7004289362       -3.4631553948
 H        -1.5653113569        5.0561573339       -0.6747405477
 H        -2.9168230834        4.1273598367       -0.9928718762
 H        -1.6726126729        4.3492232912       -2.1978885390
 H         0.9944453796        2.4129781066       -0.6082973887
 H         0.7194454825        4.0394353827       -1.3044130372
 H         0.6358601119        3.7545988507        0.4838316517
 H        -2.5048167493        1.0672918234       -4.8286536890
 H        -1.4310864188        0.0422271803       -3.6330233224
 H        -3.3283102122       -4.2117202831       -5.6645172781
 H        -4.7125537289       -3.2079360211       -5.9912439165
 H        -5.9225063429       -2.4380784787       -4.1523952634
 H        -6.2735014306       -0.8885265627       -3.1372633624
 H        -5.2151509697       -2.2860037453       -2.6233078241
 H        -5.3205163648        0.5149344362       -5.2336482577
 H        -3.8633272928       -0.0833084606       -6.0050674321
 H        -5.4713931716       -1.0134200076       -6.1101499483
 H        -2.8253009445       -1.4823340359       -7.1705181211
 H        -3.6774162556       -2.7545626259       -8.0194534354
 H         1.3800797815       -1.7330898093       -7.9296891449
 H         1.4538622230       -0.9799205758       -9.4305000811
 H         0.6481881377       -2.7761758982      -10.2080544302
 H        -0.4359332249       -4.1917036306       -9.7611290851
 H         0.6700929678       -3.5175306703       -8.5246945922
 H        -2.8696378584       -3.0091511888       -9.9486727654
 H        -2.6012759804       -1.2266194357       -9.9824026825
 H        -1.5245884853       -2.3136615736      -10.9209711177
 H         0.7433577707        1.2750174120       -7.9351622238
 H         1.4308772740        0.3670765016       -6.6248612273
 H         2.9066167623        3.9301681479       -9.2072410658
 H         2.5839713948        5.2007072299       -8.1963653333
 H         4.1773583320        4.5592534671       -8.1291011384
 H         3.8299099149        0.3478012838       -5.6804905317
 H         2.5652710126        1.4762924312       -5.2041968831
 H         4.3204262027        1.8893917103       -4.9996047294
 H         5.3814876802        1.0784022458       -7.8856806254
 H         5.0050821158        2.8282975596       -8.3475588566
 H         5.7533314339        2.4103864277       -6.7915469951
 Na       -1.6957532956       -0.6343225892       -0.4474703775
