155

 C         4.9913670842       -8.8922495527        0.6584660937
 C         5.3385964038       -7.6507373796        1.4965954591
 C         5.0471212403       -6.1893643994        0.9225893951
 C         3.5208752607       -5.7651480394        1.4521493280
 C         3.3784647203       -6.0472571697        2.9545063299
 C         6.0843467236       -5.2246492156        1.4535345337
 C         4.9324315953       -6.1857415362       -0.6475149811
 O         5.8027395617       -7.8860039274        2.5850589309
 O         2.6421538156       -5.2813324973        0.7739940915
 C         2.0528561406       -5.4530600953        3.6243707515
 C         2.3936461904       -3.9632805322        4.0942171196
 C         1.1850081295       -2.8727439824        3.8629422116
 C         1.7747508031       -1.5288282795        4.3972366195
 C         2.9622018417       -0.9102908430        3.5046871372
 O         3.3859070284       -3.6846587470        4.7192579667
 O         1.3180920048       -0.8938536644        5.3313054669
 C         0.7769379143       -2.8166455247        2.4279766187
 C        -0.0269439343       -3.2399578012        4.7079712440
 C         3.0844026313        0.5786200611        3.4691120943
 C         2.2495693144        1.2305163529        2.3976053710
 C         1.4820762419        2.6424756001        2.8460284427
 C         1.9750680647        3.8281380498        1.9159428269
 C         2.5863363034        5.0633780519        2.5825019205
 C        -0.0725912646        2.1542863456        2.6602078262
 C         1.6165244497        3.0027683967        4.3385656353
 O         1.9522194652        0.7224416882        1.3577584186
 O         1.6971686917        3.8331748350        0.7205950682
 C         3.7282809331        5.6724490423        1.7302241168
 C         4.9218843002        4.6459332405        1.7662215968
 C         6.0964816857        4.9699801538        0.7480738296
 C         5.4604770106        4.5521219584       -0.6086016800
 C         6.0067090606        3.1885111842       -1.2854678954
 O         4.9174676021        3.6490627954        2.4795712316
 O         4.6950750686        5.2812050927       -1.1996559961
 C         6.5408599075        6.4272123769        0.6599326055
 C         7.3036113279        4.0026813415        0.9969640948
 C         5.3191382809        2.8044324426       -2.6835876539
 C         4.0448325964        2.0891994545       -2.5551106665
 C         3.9086863636        0.5647094472       -3.1574271406
 C         2.6024460998       -0.0051478502       -2.8065529721
 C         1.5937235336       -0.4595959181       -3.8132905762
 C         4.3135548092        0.5997486223       -4.6011470077
 C         4.9586058570       -0.1588251542       -2.1648794552
 O         3.1721239730        2.6028635629       -1.9106007099
 O         2.2135486883        0.0166401864       -1.6414973511
 C         0.2281959004       -0.5894442920       -3.1295144388
 C        -0.4588765712        0.7255107285       -2.9711111044
 C        -1.9268844074        0.8143911582       -2.5279302302
 C        -2.0416323622        0.6235468523       -0.9224048798
 C        -3.1436911573       -0.0503306245       -0.2230094043
 O         0.0896228063        1.7921388119       -3.2659880816
 O        -1.0981803674        1.1665954043       -0.3308751342
 C        -2.4782670587        2.1869369074       -2.9395362661
 C        -2.8306140231       -0.2329750836       -3.1467626447
 C        -4.4147496185        0.8437424930       -0.0684728143
 C        -5.7365781565        0.0319098052       -0.1236309284
 C        -7.1131788674        0.6735500478        0.2387123861
 C        -7.8195897559        0.7492539588       -1.1980198685
 C        -8.5443416260       -0.3567650611       -1.9560153426
 C        -7.7862429916       -0.3763531450        1.1421303188
 C        -6.9491131037        2.1261975853        0.7585441165
 O        -5.5794679994       -1.0801134049       -0.5312862743
 O        -7.8430004268        1.8783275338       -1.6615685417
 C        -9.1581405002        0.2720381764       -3.2257722256
 C       -10.0814190047       -0.6670960299       -3.9460481688
 C       -11.4723181639       -0.2016183571       -4.4327963379
 C       -12.2725497154        0.0230194920       -3.0594755084
 C       -13.4020468209       -0.9666792827       -2.7121856235
 O        -9.7735983682       -1.8518026033       -4.0947831361
 O       -11.9096837142        0.9660803962       -2.3617473363
 C       -11.2188128515        1.0192893878       -5.3205338823
 C       -12.0594881390       -1.3677584062       -5.2792544918
 H         5.6713741337       -9.6946474632        0.7975483325
 H         4.0039879697       -9.2851211022        1.0163533136
 H         4.9120064619       -8.7278307695       -0.4143786980
 H         3.3303781493       -7.0959408882        3.0130545021
 H         4.1827705682       -5.4326050753        3.4387807758
 H         6.9598491382       -5.2714058134        0.8762599197
 H         6.3960342222       -5.2764937537        2.4878764916
 H         5.6830022520       -4.2600168218        1.2917136542
 H         5.6245463934       -6.8323910564       -1.1006487886
 H         3.9816371527       -6.4344218542       -0.9969048843
 H         5.0227228259       -5.1151343194       -1.0277107902
 H         1.2030682793       -5.5781893472        2.8758430900
 H         1.9049867404       -6.0123183216        4.5454436286
 H         3.8473771275       -1.1309080524        4.0876509084
 H         3.1385798399       -1.3679108062        2.5678846852
 H         0.3952616515       -3.7668511943        2.1242162114
 H         1.6522461755       -2.4309235205        1.8344970030
 H        -0.0092705557       -2.0631506185        2.2811307961
 H         0.1832648305       -2.9317605173        5.7891158963
 H        -0.8649085149       -2.6282286963        4.3425793489
 H        -0.2839118996       -4.2819909583        4.7173074339
 H         4.1300535731        0.8795027546        3.1955091022
 H         2.9372878026        0.7601799704        4.5315352239
 H         1.8073224360        5.8280215398        2.7584245800
 H         2.9213185187        4.8304067227        3.6173711526
 H        -0.7020124507        2.7721060273        3.1898190936
 H        -0.1994233489        1.1590465029        3.0500265056
 H        -0.4560578576        2.1481882489        1.6000389455
 H         1.2468557765        2.1664101649        4.9594496179
 H         2.6228779941        3.2748549673        4.6864193146
 H         0.9777905320        3.8369773085        4.5177605937
 H         3.3922602470        5.8078024362        0.6911334745
 H         3.9503802160        6.7311450127        1.9798913915
 H         6.9860025063        3.5563369915       -1.5302809923
 H         5.9151993795        2.4292406954       -0.4837204436
 H         7.4567762072        6.6828856878        1.2058631421
 H         5.7418881983        7.0225477484        1.0943347517
 H         6.4824392244        6.6996477235       -0.3599649825
 H         8.0231309185        4.1578011094        0.1740925225
 H         7.8250262957        4.1736866791        1.9360256406
 H         6.9518275148        2.9863187382        1.0570167686
 H         6.1062950763        2.2713846546       -3.1647220192
 H         5.3546482145        3.7116458977       -3.3536400096
 H         1.4348135128        0.2739660920       -4.6445716660
 H         1.9147087173       -1.4324557349       -4.3253965418
 H         4.8799862678        1.4660661133       -4.6980463013
 H         3.4815068793        0.5183511129       -5.2937965636
 H         4.9985577747       -0.2567317657       -4.8995042930
 H         5.8764089895        0.1296882731       -2.5777628198
 H         4.6668390920        0.0578659240       -1.1470013357
 H         4.8784850709       -1.2411587865       -2.2423226740
 H        -0.2509214018       -1.2084812962       -3.8782510992
 H         0.2000790100       -1.1600696283       -2.2387535290
 H        -3.5954149501       -0.9470217003       -0.6989360581
 H        -2.9406074901       -0.4819321085        0.7545026808
 H        -1.8383412707        3.0103946482       -2.6354012033
 H        -3.4525979239        2.4923587688       -2.5096392125
 H        -2.7312437408        2.2573070862       -3.9550906576
 H        -3.9067198043        0.0103107148       -3.1930678373
 H        -2.7569961521       -0.2994246807       -4.1741758558
 H        -2.7874343760       -1.2228358394       -2.7129448846
 H        -4.5083182216        1.6437090015       -0.8088231632
 H        -4.4973811349        1.3479336496        0.9139727810
 H        -7.7473274395       -1.0477729215       -2.4541318447
 H        -9.1868543790       -0.9316571532       -1.2908505013
 H        -7.4691557830       -0.3553771004        2.2169441500
 H        -7.4761046058       -1.3681278089        0.8027199121
 H        -8.8537803304       -0.2196902302        1.1821145998
 H        -7.8714480912        2.6915251417        0.5449164665
 H        -6.6839610503        2.0117755655        1.8285764644
 H        -6.2603580243        2.6135225937        0.0840700926
 H        -9.6857556984        1.1676022618       -2.9553472586
 H        -8.3157718437        0.5403544566       -3.8727655886
 H       -12.9265690543       -1.9409495899       -2.5334737062
 H       -13.9006625032       -0.6469214601       -1.8509245009
 H       -14.0102959575       -1.0515835259       -3.6017385514
 H       -10.1716568345        1.0912107433       -5.5271462103
 H       -11.5019534464        1.9018395935       -4.7985724076
 H       -11.7285210098        0.9505207364       -6.2526003044
 H       -13.0059942103       -1.1271293113       -5.7043471891
 H       -11.4690903610       -1.4923878675       -6.1770476531
 H       -12.1043828155       -2.3171043803       -4.7607154761
 Na        1.1220320753        1.9783133409       -0.6585533445
