155

 C         2.4859896593       -0.2898769731       11.6156415501
 C         2.6522919527        0.8166371009       10.5911346956
 C         4.0030955848        0.9395248839        9.7080006593
 C         4.0597115633       -0.2400593539        8.7666618179
 C         4.6854281081       -0.0468658219        7.3814248763
 C         4.0179782294        2.2728859640        8.9483863583
 C         5.2393736173        0.9542304263       10.5607853041
 O         1.6445910099        1.5120290279       10.4365534495
 O         3.7522621323       -1.3833712193        9.0693119407
 C         3.5914390534       -0.0676275977        6.2741460826
 C         4.1473330323        0.5383922243        4.9771156532
 C         3.7499038053       -0.2072529279        3.6259915916
 C         2.1689149053       -0.4301639136        3.4572664048
 C         1.5857402289       -1.2057351532        2.2768001070
 O         4.9341202278        1.4686211237        5.0112723944
 O         1.4000479266        0.0568631687        4.2379463439
 C         4.4353528151        0.5379664469        2.4260234940
 C         4.4296619456       -1.6500590241        3.7952655104
 C         0.4838278247       -2.0884825286        2.8850902515
 C        -0.5506891919       -2.3661798877        1.7829952592
 C        -1.8864486851       -3.1154023310        2.2523138578
 C        -3.2776888716       -2.0830349350        2.1562459263
 C        -4.5829185519       -2.4750723491        2.9407228913
 C        -2.3282908543       -4.2594837704        1.2190436816
 C        -1.7488474418       -3.7845137773        3.6933234990
 O        -0.3414575297       -2.1151455877        0.5861541499
 O        -3.3467261925       -1.4193831393        1.1442797683
 C        -5.0614674645       -1.1513702911        3.6247594470
 C        -3.9473630573       -0.1169967454        3.7596911929
 C        -4.2718725733        1.3002488667        4.2953732604
 C        -3.6529757786        2.5005379465        3.5339547725
 C        -2.1812303121        2.5862046067        3.1699852613
 O        -2.8045512345       -0.4022814998        3.4836914473
 O        -4.3437207617        3.4380128404        3.2268762739
 C        -5.7607813820        1.5561736975        4.3618683048
 C        -3.6714126874        1.4077725592        5.7274690924
 C        -1.9330787513        3.4193822989        1.8414337502
 C        -1.6660751252        2.4037943920        0.7194291791
 C        -1.0559478485        2.9485722284       -0.6830495079
 C        -1.0146418320        1.8107294138       -1.7674368481
 C        -2.2939475192        1.9452669717       -2.8022292230
 C        -1.7782435926        4.2215917568       -1.1205199651
 C         0.3702930452        3.3744364581       -0.3311184552
 O        -1.7103562189        1.2431626584        1.0716136280
 O        -0.2553789971        0.8854874780       -1.8169531161
 C        -2.2448621217        0.6654246253       -3.7158441652
 C        -3.3036468043       -0.2981026635       -3.2209222574
 C        -4.1188553305       -1.0789648895       -4.1895414744
 C        -3.1900584958       -2.3821932747       -4.5675636007
 C        -3.5307727645       -3.2947066755       -5.7965573522
 O        -3.3711746131       -0.5767796372       -2.0473778275
 O        -2.0932360016       -2.3476165735       -4.0639265922
 C        -5.3314547235       -1.6683783525       -3.4133523060
 C        -4.6173534171       -0.2424639095       -5.4547235240
 C        -3.2285116135       -2.6838577261       -7.1401172809
 C        -1.8792163476       -3.0559747970       -7.6820531155
 C        -1.2195852684       -2.4019655863       -8.9550975837
 C        -0.5863654867       -1.1206370525       -8.3280480254
 C         0.8888121334       -0.8877972088       -8.2702256793
 C        -0.2402842087       -3.3515417630       -9.7374366209
 C        -2.4220395532       -2.1048460906       -9.8770739719
 O        -1.1999101265       -3.8683276558       -7.0655719410
 O        -1.3325496518       -0.2471962244       -7.9962838214
 C         1.3499446906        0.4399271179       -7.6419256930
 C         2.7666175163        0.9321993667       -8.1381895414
 C         3.5810992521        1.9203018349       -7.3854250935
 C         2.8412250763        3.2647858656       -7.3581583161
 C         3.2585264845        4.4427778051       -8.2232269464
 O         2.9995307054        0.6118284069       -9.3148547175
 O         1.8798602919        3.3669599569       -6.6323335056
 C         3.5759513717        1.3703237529       -5.8203234245
 C         5.0097169659        2.0483823780       -7.8398481619
 H         3.3822188238       -0.8052851421       11.9523596061
 H         2.0181036577        0.0776606685       12.4839650020
 H         1.7347307411       -1.0431691307       11.1872416602
 H         5.1911547749        0.9721014744        7.1904431219
 H         5.4312630474       -0.7984559293        7.3763968389
 H         3.8981814276        3.0962120843        9.6509951858
 H         3.1823204003        2.2202300487        8.3425104684
 H         4.9064281640        2.4958337279        8.3250222782
 H         5.2550690743        0.0353428135       11.1189955215
 H         6.0903775876        1.0705374975        9.8896424358
 H         5.2100697322        1.8922127317       11.1555010196
 H         3.2732100845       -1.1294751855        6.1980477876
 H         2.5274078503        0.4119487940        6.4627590432
 H         1.0923185254       -0.5573518108        1.5460046478
 H         2.3480911953       -1.7599788836        1.7642968962
 H         3.9640672021        1.5410914324        2.2776461101
 H         4.2481378004        0.0422441448        1.4803498004
 H         5.5533916494        0.6586990540        2.5644192265
 H         4.4938658739       -1.7850923210        4.8901129179
 H         3.6370016452       -2.2928128020        3.3059672476
 H         5.4949570462       -1.8352911249        3.3813888934
 H        -0.0123209236       -1.6591306061        3.7573679703
 H         0.9276983863       -3.0069138908        3.1211157462
 H        -5.3079209297       -2.7456917838        2.0488508077
 H        -4.4262295873       -3.2770921763        3.6663114286
 H        -2.3041695070       -3.8290948123        0.2161776254
 H        -3.1990715883       -4.7527377813        1.4373216211
 H        -1.6012069627       -5.0533115725        1.5005146618
 H        -1.0988590148       -4.6242637807        3.5676344113
 H        -1.3214407675       -3.1470008713        4.4175764415
 H        -2.7157909004       -4.1896545266        3.9194542211
 H        -5.9177288716       -0.7286896232        3.0662803299
 H        -5.5008128443       -1.2918012080        4.6135418815
 H        -1.4939932405        2.8375164836        3.9975223309
 H        -1.7966245140        1.6240652154        2.9074799881
 H        -6.2902801652        0.7404712194        4.9717743896
 H        -6.3304810183        1.4427124932        3.4461719903
 H        -5.8427420550        2.5076479393        4.8251966176
 H        -3.4761574051        2.3485639906        6.1741612178
 H        -4.3798759395        0.7666182199        6.2380135696
 H        -2.6962447937        0.8509310061        5.8357212747
 H        -1.0517094711        4.1086069447        2.0200384057
 H        -2.7830366429        3.9443966421        1.4711717978
 H        -3.2093181829        2.0319781963       -2.2907628432
 H        -2.3998721076        2.8840494291       -3.4725545774
 H        -1.9294969629        4.9299191954       -0.3296214140
 H        -2.8262737121        4.0288452935       -1.3902465292
 H        -1.2570590562        4.6745715315       -1.9869353339
 H         0.7936118059        2.8502745787        0.4798041822
 H         0.9699317485        3.0919131093       -1.1702267410
 H         0.3713186710        4.4950811219       -0.2089793301
 H        -2.5847583200        1.1290823051       -4.6137255383
 H        -1.2009188681        0.2818811942       -3.6849996651
 H        -3.0180372605       -4.2023788743       -5.5425033132
 H        -4.6376428261       -3.4791658932       -5.5620313405
 H        -6.0348989593       -2.3017735994       -4.0550563316
 H        -5.8861118744       -0.9707423654       -2.8975851728
 H        -4.9264111624       -2.3920446133       -2.7069594376
 H        -5.3520843497        0.5611299935       -5.2001573434
 H        -3.8867195213        0.2048583729       -6.1348495588
 H        -5.0948134173       -0.9831408541       -6.0572717378
 H        -3.2407854017       -1.6193793199       -7.1206962615
 H        -4.0232508290       -3.0311750355       -7.8054192636
 H         1.4242956666       -1.7852335094       -7.9750168150
 H         1.1171801550       -0.8449444683       -9.3431388420
 H         0.0221880675       -2.7290438479      -10.5908477451
 H        -0.7897991848       -4.1421210886      -10.1890265330
 H         0.6375967060       -3.6689526682       -9.1918071361
 H        -2.6044036144       -3.0780582368      -10.3195764351
 H        -3.3117110157       -1.8429868489       -9.3394400281
 H        -2.2119637063       -1.2949310540      -10.5392242529
 H         0.6328405183        1.2602973331       -7.9479192774
 H         1.2919082836        0.3574449671       -6.5379075477
 H         3.9297605523        4.3728808663       -9.0570123656
 H         2.3591486569        4.8392999963       -8.7305937689
 H         3.5904066768        5.2465706395       -7.5647472880
 H         3.1216917134        0.3875423386       -5.6025838379
 H         2.9800734262        2.1081841061       -5.2721396158
 H         4.6533703086        1.4112112835       -5.5065136935
 H         5.4809552854        1.0893554565       -7.7937644959
 H         4.9530418940        2.4226024392       -8.8272315588
 H         5.5041048458        2.6901646597       -7.1218982364
 Na       -1.7092761079       -0.5946945522       -0.3050774747
