155

 C         2.7130307897       -8.9472254749       -1.3062211412
 C         3.6419097403       -9.1082979902       -0.0411170180
 C         4.3886893754       -7.7350995314        0.3818298338
 C         3.4109711982       -6.8962222870        1.1742960711
 C         3.7650126591       -5.9227383987        2.2757750865
 C         5.5365433266       -8.2119886516        1.3305852559
 C         5.1267151452       -7.0967787996       -0.8560075645
 O         3.7802695976      -10.1299542801        0.5966791035
 O         2.2381264796       -6.8154233027        0.8454150309
 C         2.4236513847       -5.2001143887        2.8500853893
 C         2.5833247439       -3.6403041296        3.2258550750
 C         1.3261509251       -2.7400370404        3.4602667055
 C         1.9253313376       -1.2957668240        3.8330273279
 C         2.7855766637       -0.3680388429        2.8189407427
 O         3.6766808778       -3.1196828023        3.1074336282
 O         1.7578389531       -0.8920182241        4.9368187380
 C         0.5156237795       -2.7517765869        2.1319013381
 C         0.5788244551       -3.2236209555        4.7283740063
 C         2.6995159232        1.0639636060        3.2390450479
 C         1.7930420106        1.8861480249        2.2172537724
 C         1.5026315252        3.4469197820        2.3737250806
 C         2.3351576497        4.3869389643        1.2087833613
 C         3.4604047236        5.3853263278        1.8545216732
 C         0.0249786019        3.6674547718        2.0404796960
 C         1.8430689365        3.9244018662        3.7720620123
 O         1.4172115803        1.3711075196        1.2073755036
 O         2.0067250702        4.3384619591        0.0567268267
 C         4.5313837127        5.8615118651        0.9395187721
 C         5.8793028898        5.0649909059        1.0598979084
 C         6.9760796630        5.1862083937        0.0291167966
 C         6.3348264718        4.4449682346       -1.3168541051
 C         6.6518853166        3.0175261721       -1.5323584028
 O         5.8528527088        4.1770442291        1.8737192031
 O         5.7300873234        5.0284059315       -2.2109214045
 C         7.3265825588        6.6672468703       -0.2259594412
 C         8.2169345951        4.4329408780        0.5082391733
 C         5.8117770134        2.3543660630       -2.7498409629
 C         4.5211751324        1.6403925604       -2.2810139631
 C         4.1182470929        0.2917241250       -2.8042033691
 C         2.7557755765       -0.0613644999       -2.4972104329
 C         1.7510932130        0.0269977043       -3.6849244119
 C         4.4426022237        0.0539891401       -4.3383283027
 C         5.0227887725       -0.6678711264       -1.9550660921
 O         3.8504372139        2.2835827551       -1.4621465608
 O         2.3908867881       -0.4359220024       -1.3754198490
 C         0.3338776274       -0.3895387348       -3.3620760008
 C        -0.5425963055        0.9085754863       -3.1628560068
 C        -2.0810087326        0.8363430346       -2.8878811678
 C        -2.2102118775        0.9015332371       -1.3041359900
 C        -3.4402914194        0.4084054848       -0.5370940383
 O        -0.0013015017        2.0300123557       -3.0281827252
 O        -1.3029752638        1.4324797082       -0.6774633735
 C        -2.7724807276        2.0711269559       -3.4470623699
 C        -2.6997985133       -0.4536181425       -3.3878262613
 C        -4.6009835177        1.3320771440       -0.4401927896
 C        -5.6625576214        0.7366755833        0.5734698965
 C        -7.0064927399        1.5245741812        0.5953033670
 C        -7.7734399752        1.3489420772       -0.8475501794
 C        -8.7988915235        0.1511609682       -1.0608060271
 C        -7.9166058500        1.2599136274        1.7847065252
 C        -6.7054204206        3.0630289878        0.7150769804
 O        -5.4603792706       -0.0884141504        1.4385688295
 O        -7.4398050781        2.0859731866       -1.7500506303
 C        -9.8600061645        0.3849268294       -2.2552099680
 C       -10.8245664773       -0.8916316550       -2.3146376644
 C       -12.3256380194       -0.6897969917       -2.2416322594
 C       -12.4478657213       -0.6825466139       -0.6247137085
 C       -12.6436540833       -2.0343689046        0.1169348086
 O       -10.3171245661       -1.9818948280       -2.3898655453
 O       -12.1414764184        0.3129187497        0.0360724531
 C       -12.7748376183        0.6834797535       -2.8078534724
 C       -13.1479945981       -1.8196244153       -2.8783045219
 H         3.0779078480       -9.5337990178       -2.1142089754
 H         1.6103541157       -9.3993132446       -1.1371117818
 H         2.6864153871       -7.9285342262       -1.5444953781
 H         4.4314962750       -6.2282258375        3.1486976416
 H         4.3450787630       -5.1539674715        1.8047300636
 H         6.1176551947       -9.0397475400        0.8359783477
 H         5.0732355160       -8.5572942779        2.2078479755
 H         6.2799879933       -7.4888172505        1.5930731343
 H         4.4619213402       -6.8649579375       -1.6788472764
 H         5.6380827179       -6.2077910276       -0.5082027658
 H         5.8515582301       -7.7996298115       -1.2496861934
 H         1.6837671638       -5.3546488405        2.0381173443
 H         2.2331354305       -5.8375851803        3.7403733614
 H         3.8461103417       -0.6348023822        2.9143909608
 H         2.5664409889       -0.5878360588        1.7570873628
 H         0.3929543288       -3.7175849176        1.7472564604
 H         1.1714843783       -2.4193887885        1.2845171611
 H        -0.4272201163       -2.1996605724        2.1632595089
 H         0.6010129569       -4.2985809788        5.0290448141
 H         0.7385339181       -2.6644985355        5.6414754893
 H        -0.4437051956       -2.9175709379        4.4944081102
 H         3.6160105332        1.6916451021        3.2022918455
 H         2.2378309618        1.3546224366        4.1892319336
 H         2.7953649587        6.2061578573        2.1046056028
 H         3.8082893715        4.9683241741        2.7585731119
 H        -0.2974606648        4.6486434983        2.4084410217
 H        -0.5703219740        2.9061665458        2.5212072510
 H        -0.0660775961        3.5718275931        1.0117085132
 H         1.3332305405        3.1682530709        4.4365263766
 H         2.9282417557        3.8180844411        3.9079554205
 H         1.3457114393        4.8323354079        4.0182818416
 H         4.3298364871        5.8983816301       -0.1053960845
 H         4.7998941898        6.9315483662        1.1071546956
 H         7.6771557453        2.8997243880       -1.6918924919
 H         6.3601071584        2.3895100466       -0.6876584802
 H         6.6305376165        7.2338598717        0.3417160982
 H         7.2548206363        6.9712014210       -1.2613029963
 H         8.3404679043        6.8789673953        0.0385467281
 H         9.0730152641        4.3493401343       -0.1983989868
 H         8.5376587168        4.9875520021        1.3536478383
 H         7.9145384652        3.4357940027        0.8022760964
 H         6.4996612242        1.7967831801       -3.3655548712
 H         5.5766085182        3.2062559196       -3.4526980319
 H         1.7683244251        0.9615922121       -4.2118478569
 H         2.1918487015       -0.7410062739       -4.3799612272
 H         5.4340843832        0.4247944804       -4.6429017493
 H         3.6137513736        0.5429748174       -4.9547368520
 H         4.3497030111       -1.0311872501       -4.5459241740
 H         6.0322204633       -0.3508604543       -1.9650913590
 H         4.7867798937       -0.6143266600       -0.9302703187
 H         4.8589962193       -1.6543540642       -2.4454642153
 H        -0.3525880596       -0.9537124036       -4.0779403455
 H         0.2946060483       -0.9930762911       -2.4110069542
 H        -3.6899794626       -0.6042073649       -1.0116208773
 H        -3.0644497320        0.1339974846        0.5029636809
 H        -2.4353994792        2.9689925735       -2.9244811106
 H        -3.8204040960        1.8646950634       -3.3929609788
 H        -2.5136920809        2.2722771979       -4.4960153727
 H        -3.7531030614       -0.4688144573       -3.1980910268
 H        -2.4009544953       -0.7382642809       -4.4552238851
 H        -2.1087487309       -1.2069673327       -2.8064866714
 H        -5.1037991681        1.6585684283       -1.3954933721
 H        -4.2952622887        2.3428716640       -0.0132822916
 H        -8.1856794464       -0.7521480934       -1.1499408494
 H        -9.3853028209        0.0100567426       -0.1813522119
 H        -7.1966491360        1.3209052674        2.6531024778
 H        -8.2879647210        0.2410306239        1.7895695129
 H        -8.8301731858        1.8684130774        1.8200286722
 H        -7.4870128998        3.6646100540        1.0903582243
 H        -5.8015927230        3.3068405014        1.3240935853
 H        -6.4861635865        3.4535771229       -0.2612497972
 H       -10.2634915656        1.3282667549       -1.9219767002
 H        -9.2601460435        0.4599910351       -3.2322949585
 H       -11.6355154481       -2.5196931718        0.0164271714
 H       -12.7547729512       -1.7254813007        1.2048744914
 H       -13.4867342776       -2.6525338020       -0.2013662967
 H       -11.9772850391        1.1931102934       -3.4664494455
 H       -12.9658689848        1.4385437903       -1.9976421775
 H       -13.7487300110        0.5676259402       -3.3821428398
 H       -14.2304006067       -1.6670497400       -2.6953890138
 H       -12.9609865144       -1.8310598203       -3.9344659187
 H       -12.8922802052       -2.8319439097       -2.4151889680
 Na        1.2524357513        2.0644189832       -0.8474235350
