155

 C         2.0663660833       -8.5731214016       -1.2954622191
 C         3.1860825512       -9.0941212102       -0.2777870105
 C         3.9617846616       -7.9940608959        0.4640219335
 C         3.1202593399       -6.6599039522        0.8849384328
 C         3.8911821098       -5.5377219553        1.5105439545
 C         4.8050421505       -8.5294846786        1.7863808277
 C         5.0567284592       -7.4929210815       -0.5505180493
 O         3.4395281087      -10.2320596481        0.0389735526
 O         1.9424166253       -6.6151874485        0.7121251548
 C         3.2536675776       -5.1243460578        2.8753420879
 C         3.0287780236       -3.6094380830        2.9962977501
 C         1.6504818184       -2.8503042123        3.1870659713
 C         1.8143465037       -1.3273336535        3.7419635314
 C         2.8669270787       -0.3630360352        3.1349527590
 O         3.9930207123       -2.8996154681        2.8435190339
 O         1.0900741131       -0.9221857054        4.6064838708
 C         1.0050770968       -2.5947976412        1.7615591648
 C         0.6193049632       -3.6810678043        4.0517154478
 C         2.7102958211        1.0817439855        3.5459378768
 C         1.8222207570        1.8295378998        2.4986976427
 C         1.6072672734        3.4064263677        2.5929338374
 C         2.4701653948        4.1906464225        1.5231159090
 C         2.9720557910        5.6108303682        1.7050227939
 C         0.0590566110        3.6749590339        2.1934468187
 C         1.9165981763        3.9214519466        4.0167667848
 O         1.2550307962        1.2355253876        1.5848754537
 O         2.5325962429        3.7681489422        0.3569175511
 C         4.0616550791        6.0275745804        0.6932286354
 C         5.3652166291        4.9722538489        0.6822130801
 C         6.5476917421        5.0285510074       -0.4046864710
 C         6.2066814919        3.9845652411       -1.5599488191
 C         6.4547949238        2.4084401997       -1.3291046086
 O         5.4631108615        4.2019229754        1.6065928761
 O         5.9079422939        4.3965827301       -2.6434872430
 C         6.5158443070        6.3972151479       -1.1285883950
 C         7.8272091488        4.7144698771        0.3267986985
 C         5.8504726144        1.6060002599       -2.5634798167
 C         4.2480465259        1.4136896840       -2.4495420954
 C         3.8159226755        0.0448070838       -3.0145420115
 C         2.2540106333       -0.1105130028       -2.9044478936
 C         1.3905776239       -0.5451826209       -4.0622691871
 C         4.3288357733        0.0605257124       -4.5274118204
 C         4.4105968287       -1.1251436305       -2.1711556577
 O         3.5076307887        2.1544673724       -1.9526645107
 O         1.7191893140       -0.1715895921       -1.8334740205
 C        -0.1223802409       -0.1468704565       -3.9404326561
 C        -0.3726743155        1.1624022763       -3.3025696061
 C        -1.8679045360        1.5709095459       -2.7988468609
 C        -1.7397995172        1.5120378534       -1.1877519185
 C        -2.8742571148        0.8070841895       -0.3705970300
 O         0.4940816356        1.9852093711       -3.1253793438
 O        -0.7947940662        2.0309436173       -0.6445184200
 C        -1.9285033660        3.0802358434       -3.1706607034
 C        -3.1491174996        0.8581734672       -3.3208494329
 C        -4.0772247633        1.7911000566       -0.1558354062
 C        -5.3589866429        1.0763084385        0.4005262667
 C        -6.7749955080        1.6905382590        0.3953727716
 C        -7.5844809417        1.1431254351       -0.9366066878
 C        -8.8529105589        0.3855886031       -0.7383277163
 C        -7.6420752000        1.2346127954        1.5460803013
 C        -6.6809939981        3.3018598214        0.3950797275
 O        -5.2923208212       -0.0132000390        0.9498371278
 O        -7.0859551496        1.3812332714       -2.0022151424
 C        -9.3941014111       -0.3681938062       -1.9930373545
 C       -10.6716932995       -1.2006511425       -1.7156955172
 C       -11.9931472447       -0.5707670623       -1.2617811862
 C       -11.8976909942       -0.5979297499        0.3639284002
 C       -12.4665719161       -1.8882507032        0.9676721295
 O       -10.6250431282       -2.4078947434       -2.0288152940
 O       -11.4614614233        0.2924540951        1.0327685374
 C       -12.2799744809        0.8522495190       -1.6871508586
 C       -13.0612911876       -1.4611605749       -1.8665865127
 H         1.1060969783       -8.4270721250       -0.6866890951
 H         2.3885868582       -7.7615443696       -1.7761305543
 H         1.9745747542       -9.3871865624       -2.0903206227
 H         4.9585317144       -5.7627565826        1.7116941271
 H         3.6040855869       -4.7508215291        0.9590116572
 H         4.8019192184       -9.5886361903        1.7337367139
 H         4.2036855266       -8.3352319899        2.6865681563
 H         5.7850927377       -7.9955134417        1.9253910323
 H         4.6280034191       -6.8665943889       -1.3830968637
 H         5.6563631523       -6.7969954160        0.1322831399
 H         5.6423472834       -8.3269526255       -0.8451810784
 H         2.1730123391       -5.5483714760        2.9525248646
 H         3.7615372089       -5.3974570584        3.8192904905
 H         3.7783138724       -0.8083191327        3.5587479478
 H         2.8423775620       -0.4901158249        2.0750671945
 H         0.7037444346       -3.5292920455        1.3536377486
 H         1.4676875874       -1.8755660456        1.1369899805
 H         0.0011053027       -2.1462840551        1.8523411193
 H         0.4176498976       -4.6445207691        3.6426662975
 H         0.8340981213       -3.7567937564        5.1055691346
 H        -0.3828012951       -3.2199312010        3.9032174722
 H         3.6284414454        1.5889481609        3.6094474586
 H         2.1751131764        1.2541461762        4.4394655063
 H         1.9967962431        6.1665639439        1.6092953908
 H         3.2433209294        5.7017408133        2.7636384560
 H        -0.1833938100        4.7625008851        2.2441707966
 H        -0.4716059423        3.1301674786        2.9073726683
 H        -0.1430144960        3.2112884453        1.1571758717
 H         1.4992114963        3.2314249595        4.7639872886
 H         2.9958765949        3.9548787685        4.1809179219
 H         1.5621928810        4.9508806571        4.2227148533
 H         3.6822301114        6.0136191822       -0.3259257548
 H         4.4471998836        7.0578740792        0.9389693456
 H         7.5961808926        2.3816060426       -1.4822681320
 H         6.1519616618        2.0126687080       -0.3081587985
 H         6.2913825971        7.0835182699       -0.3130980448
 H         5.6088417978        6.3806433753       -1.7035626556
 H         7.4932737191        6.6810528421       -1.6694409635
 H         8.7117576908        4.6134102155       -0.3015267499
 H         7.9018139516        5.5738063167        1.0400567360
 H         7.5177161986        3.9045434836        1.0282570726
 H         6.4082704417        0.6967337669       -2.6589418630
 H         6.2386389342        2.2174645291       -3.3873612842
 H         1.7330241933       -0.1617314249       -5.0118396241
 H         1.4478043684       -1.6900848870       -4.0629254700
 H         5.3390798349       -0.1475049119       -4.5413815850
 H         4.0984218497        0.9581162653       -4.9999235109
 H         3.8296311050       -0.7792074722       -4.9808222214
 H         5.3903184072       -1.4779610919       -2.5631318075
 H         4.3213929595       -1.0386759703       -1.0900054953
 H         3.7665492491       -1.9823371554       -2.2962130774
 H        -0.5342287176       -0.1098731811       -4.9619039336
 H        -0.6945190199       -0.8048590507       -3.3211631674
 H        -3.2058635814       -0.0669959900       -0.8956272911
 H        -2.4753664997        0.5373498807        0.6038553414
 H        -1.2487207399        3.6238350622       -2.5794413449
 H        -2.9130433665        3.5325829295       -2.9503229231
 H        -1.6910281623        3.0833358458       -4.2864538367
 H        -3.9921589100        1.0433126924       -2.6397074682
 H        -3.4568761110        0.9919347082       -4.3041589195
 H        -3.1350366030       -0.2683751735       -3.1416052700
 H        -4.3479197280        2.3855644226       -0.9724800045
 H        -3.6846372005        2.3897351924        0.6586437149
 H        -8.8461357555       -0.3610572262        0.0830259408
 H        -9.6507901995        1.0599681956       -0.3874870591
 H        -7.2695804629        1.6134123389        2.4819546986
 H        -7.5348989387        0.1709605952        1.5739394856
 H        -8.6172139207        1.6957723312        1.4577110466
 H        -7.5975766054        3.8784355690        0.4846413707
 H        -6.1073930008        3.6310399199        1.2982041992
 H        -6.1210524255        3.7086642248       -0.4980077624
 H        -9.5064210450        0.2398168315       -2.8610568183
 H        -8.5741446177       -0.9990069071       -2.3529203173
 H       -11.8531074069       -2.6724128939        0.6002547509
 H       -12.3822078358       -1.7925933935        2.0035771261
 H       -13.4695136312       -2.0819531414        0.6322911954
 H       -11.8214326237        1.0908920992       -2.6059940719
 H       -11.7688801069        1.4484984078       -0.9291518113
 H       -13.2889765300        1.1518173417       -1.7169027973
 H       -14.0848679477       -1.1794988167       -1.6024012691
 H       -12.9837193746       -1.4321780246       -2.9234940747
 H       -12.8309885925       -2.4525586578       -1.6097759635
 Na        1.6768488423        1.8452597971       -0.7078440735
