155

 C         1.9167972712       -8.5670974918       -1.3492142948
 C         3.0469063801       -8.9734862055       -0.3365011014
 C         3.9896860457       -8.0052608307        0.4415723358
 C         3.1940997370       -6.7560114491        0.8901220910
 C         3.8900397652       -5.3943781812        1.4561768216
 C         4.4885463046       -8.5647447125        1.7764630817
 C         5.1810747759       -7.5359998123       -0.4481862571
 O         3.2323809779      -10.1179103319        0.0298939897
 O         1.9689745757       -6.7026387288        0.8103620437
 C         3.1359208184       -4.9870470214        2.7632903913
 C         3.0902194264       -3.4157082320        2.8617378833
 C         1.6444580806       -2.8494894891        3.0934389372
 C         1.7074801041       -1.3505495778        3.7381760957
 C         2.8892120019       -0.4137096568        3.3234507895
 O         4.0654864968       -2.7294349903        2.5420006946
 O         0.9540774548       -1.0500749047        4.6438324350
 C         1.1532379798       -2.6736390627        1.5841258789
 C         0.6838064512       -3.6186129143        3.9856230711
 C         2.7754128728        1.0663269343        3.6525357307
 C         2.0463911729        1.8315648018        2.4498562270
 C         1.7388527467        3.4166951726        2.5866078083
 C         2.4497585553        4.1534590845        1.5111049221
 C         3.1188423836        5.5281968378        1.8472451005
 C         0.1495603546        3.5117265935        2.2482530577
 C         1.8189722924        3.9767751303        4.0058756661
 O         1.6030513103        1.1635362275        1.5636246717
 O         2.5061571042        3.7754702331        0.3874302544
 C         3.9990149906        5.9076793752        0.6453294803
 C         5.1800550625        4.8424943423        0.5867355485
 C         6.3345687354        5.0281852170       -0.6169120661
 C         5.9931601835        3.9881498770       -1.6862163477
 C         6.0851150632        2.4469386452       -1.2279211733
 O         5.2259582999        3.9614014959        1.4179597976
 O         5.8648305853        4.3495953548       -2.8575066008
 C         6.4066171720        6.4873567493       -1.1251787186
 C         7.6916876323        4.7499919048        0.1433070378
 C         5.7001851855        1.5145814626       -2.3677231205
 C         4.2443600197        1.2121959796       -2.4303922653
 C         3.5940455706       -0.1280200276       -3.0487238825
 C         2.0545250797       -0.3142044010       -2.8946991941
 C         1.1538604651       -0.4166207056       -4.1848301504
 C         4.0898727256       -0.2115702576       -4.5584479360
 C         4.2333117572       -1.4834107352       -2.3402109841
 O         3.4959332247        2.1046227056       -1.9326006374
 O         1.5734952001       -0.3147880381       -1.7697896289
 C        -0.2881214629        0.0398501518       -4.0471209519
 C        -0.3422601054        1.4017202758       -3.3107631112
 C        -1.6951345292        1.8518164019       -2.7909094862
 C        -1.6686313872        1.6788348825       -1.2162339819
 C        -2.7796361604        1.0106731854       -0.3697827632
 O         0.7068766457        1.9622415107       -3.0681279143
 O        -0.7383618004        2.0989308361       -0.5456802164
 C        -2.0008263455        3.3661727387       -3.0425564862
 C        -2.8386436613        1.0072897170       -3.4498776244
 C        -4.0237523034        1.8780008710       -0.1285818975
 C        -5.2195790078        0.9982614615        0.4342717698
 C        -6.6228645002        1.6209249622        0.3083024622
 C        -7.3697371315        1.0881423295       -0.9771752176
 C        -8.5539126316        0.1358712499       -0.7525908444
 C        -7.3159964450        1.4277565017        1.7252121066
 C        -6.7162426995        3.1316247519        0.0426630252
 O        -5.0255569144       -0.0603582215        0.9570503171
 O        -7.0429862587        1.5127060982       -2.0748078663
 C        -9.3313701723       -0.4568675846       -1.9570515388
 C       -10.6645822822       -1.2116434133       -1.6093991499
 C       -12.0086932077       -0.5122848820       -1.1446937624
 C       -11.8130493068       -0.6770469429        0.4073791342
 C       -12.1708740994       -1.9525099171        1.1594434316
 O       -10.5527046969       -2.3962415996       -1.5107132096
 O       -11.2033045733        0.2278690461        0.9869798132
 C       -12.1757515061        1.0206451841       -1.4482819813
 C       -13.3532699714       -1.2514227996       -1.6017694234
 H         1.0885241152       -9.0389795032       -0.9288531123
 H         1.7915366803       -7.4281813729       -1.2663860806
 H         2.0998295952       -8.7443012180       -2.3795778459
 H         4.9248386776       -5.5073495624        1.7180187188
 H         3.6226343385       -4.5072458320        0.7196188280
 H         4.3432766921       -9.6799660219        1.7417205803
 H         3.9427088211       -8.2244777472        2.6646838363
 H         5.4779608331       -8.2131260193        1.8910701160
 H         4.7635455085       -6.6635071761       -0.9248766572
 H         6.1050679846       -7.4054526065        0.0709254662
 H         5.3585320351       -8.3726761489       -1.1885550949
 H         2.1577131056       -5.3362546128        2.7153991528
 H         3.5447571092       -5.4520012047        3.6857036910
 H         3.6676259073       -0.8317957077        3.9541241519
 H         3.0697838747       -0.6252370434        2.2504944683
 H         0.9277649533       -3.6187993793        1.1515861485
 H         1.9037436173       -2.0390903943        1.0447072498
 H         0.3073299360       -2.0700979648        1.3968454390
 H         0.7349297973       -4.7357196713        3.9081447158
 H         0.9207277036       -3.3272803806        5.0093970260
 H        -0.3386686910       -3.4037490851        3.7248091585
 H         3.8662405524        1.4933819632        3.7521830513
 H         2.2376972743        1.2720816879        4.6295681997
 H         2.3886634728        6.2223332338        2.2036663900
 H         3.8202623508        5.2909045909        2.6422950791
 H        -0.0488721450        4.5532804819        2.2642093896
 H        -0.4738817244        2.9710971603        3.0077414653
 H         0.0068570826        3.1408620002        1.3086849672
 H         1.4171722647        3.2829584273        4.7761257362
 H         2.8440359598        4.2814920758        4.3449228760
 H         1.1812006709        4.8704164639        4.0782167543
 H         3.5269158020        6.0351755602       -0.3470625887
 H         4.4729545787        6.8125433311        0.9964904169
 H         7.1011963017        2.4489235608       -0.9359438145
 H         5.4702727817        2.2534540879       -0.3771156263
 H         6.2386914926        7.1364016041       -0.2883268275
 H         5.6386541522        6.6698294064       -1.8687205232
 H         7.3798834657        6.6313335681       -1.4068198114
 H         8.5455049440        4.8218935894       -0.5415087723
 H         7.7829941198        5.5479690698        0.8331978903
 H         7.5436022236        3.9001690190        0.7424364214
 H         6.3867528486        0.6197205956       -2.3941653448
 H         5.8552047956        2.0287937221       -3.3453413592
 H         1.6170426844        0.2245678942       -4.9706579666
 H         1.2293883989       -1.4439204187       -4.4627505254
 H         5.1957779420       -0.2973917816       -4.5431277551
 H         3.7859024997        0.7585488543       -5.0778682263
 H         3.7244361352       -1.1250555927       -5.0260470734
 H         5.1509186522       -1.3122024854       -1.8302703094
 H         3.4978993044       -1.9050060621       -1.6723802611
 H         4.5329159729       -2.3318595013       -3.0100064096
 H        -0.7282480308        0.2409465095       -5.0528813016
 H        -0.8765542526       -0.7595768213       -3.4644499814
 H        -3.1362536409        0.0756061131       -0.9225955713
 H        -2.3619658095        0.8038015374        0.6478248620
 H        -1.2848574583        3.9946125994       -2.4355286682
 H        -2.9139996130        3.5369507359       -2.4902070556
 H        -2.0041578458        3.6345134461       -4.0779656281
 H        -3.8347854961        1.3660158637       -3.3004266945
 H        -2.6289086315        0.9963549886       -4.5908886645
 H        -2.9141571954       -0.0396757379       -3.2944991986
 H        -4.4396971643        2.3145928175       -1.1068324706
 H        -3.7134173460        2.6632042135        0.5848985202
 H        -8.2477958421       -0.7143189252       -0.1715321788
 H        -9.2711641289        0.5986449958       -0.0934304218
 H        -6.7774083927        2.0562606109        2.4721602942
 H        -7.1171385081        0.4167752052        2.0500247592
 H        -8.3517142841        1.7183921334        1.5908641395
 H        -7.7712320630        3.3016024838       -0.1528047005
 H        -6.4520476701        3.8466067070        0.7874648410
 H        -6.1756459289        3.4007468090       -0.8163466959
 H        -9.4907100555        0.3200754428       -2.7586386982
 H        -8.6150613851       -1.0895691357       -2.5127239155
 H       -11.5273254185       -2.8312771728        0.9172805678
 H       -12.0614744813       -1.6356211145        2.2427649155
 H       -13.2012221615       -2.1654346600        0.8756801331
 H       -12.4339840328        1.1213534320       -2.5250221561
 H       -11.3869768742        1.6620776490       -1.1070055380
 H       -13.0537188667        1.4426662283       -0.9288893142
 H       -14.1958346750       -1.0196737772       -0.9888799810
 H       -13.5875493454       -0.9129753529       -2.6159851999
 H       -13.1897506356       -2.3655151673       -1.6770110028
 Na        1.5467508258        1.9413856336       -0.5890403814
