155

 C         2.2397372152       -8.4005896565       -1.6076387691
 C         2.8570028714       -8.9415460285       -0.3463405347
 C         3.7790542310       -8.0529898543        0.5382046560
 C         3.0376334542       -6.7744609335        0.8863444476
 C         3.9013061604       -5.5442275788        1.5000613450
 C         4.2946068999       -8.9293391106        1.7083223906
 C         5.0325529302       -7.6290548203       -0.4042542654
 O         2.6840122089      -10.1178292176       -0.1319442291
 O         1.8585777403       -6.7315573760        0.9884150126
 C         3.2528523920       -4.8337634483        2.6645348782
 C         3.0865641939       -3.3328808773        2.5025520294
 C         1.7884017692       -2.6487184589        2.9007824125
 C         1.8968453071       -1.2776840590        3.8006907216
 C         3.0533369035       -0.3489016350        3.5973703397
 O         4.1222479262       -2.6725674359        2.3447225394
 O         0.8240628491       -0.9436016155        4.2529281372
 C         1.0218120283       -2.0571221000        1.6127632547
 C         0.9212368238       -3.5885135692        3.7684228888
 C         2.8157940562        1.1502194012        3.7908962419
 C         2.2128317147        1.8534267059        2.5348672490
 C         1.6759777729        3.2553427963        2.7577776943
 C         2.2669020343        4.1422861618        1.5493123185
 C         3.2039101458        5.3355716506        2.0434568600
 C         0.1701984197        3.2173540529        2.6307046497
 C         1.9621514817        3.9314906688        4.0916679784
 O         2.2988489315        1.3219369466        1.4479620964
 O         2.0025907523        3.9872266275        0.3814393467
 C         4.1532221065        5.8275367274        0.8947668889
 C         5.1192177777        4.6548091402        0.4803007458
 C         6.0617755012        4.9039464905       -0.8354119450
 C         5.7900770209        3.7370066782       -1.8726094642
 C         5.9940620676        2.1514987034       -1.3841996993
 O         5.1349180085        3.6038032838        1.1026255015
 O         5.5072851410        3.9866060419       -3.0214624977
 C         5.9977581701        6.3225389369       -1.5368971280
 C         7.4891520156        4.6446731170       -0.2573325231
 C         5.5225753384        1.3538450683       -2.5299300772
 C         4.1095155605        0.9111041469       -2.3417860372
 C         3.6284433618       -0.3929402353       -3.1017990122
 C         2.0196659118       -0.3291603224       -3.0604052049
 C         1.1971243586       -0.0309223260       -4.3729524096
 C         4.3814278143       -0.4453818012       -4.4807063510
 C         4.0223945417       -1.6248875599       -2.2699952551
 O         3.3020769930        1.5041686269       -1.6976222558
 O         1.4600576442       -0.5812478088       -2.0408734606
 C        -0.3079350244        0.2793064249       -3.9885298730
 C        -0.3320816924        1.7023681763       -3.3329868485
 C        -1.7074943851        2.2734582324       -2.7618467030
 C        -1.8206014223        1.8853178795       -1.2520441016
 C        -2.9411678508        0.9902306324       -0.7036768439
 O         0.6816504709        2.3613149792       -3.2946781642
 O        -0.9951181415        2.3502036460       -0.4785974483
 C        -1.7424756757        3.8646929300       -2.8192839427
 C        -2.8900786917        1.7596616842       -3.5769953959
 C        -4.2166245829        1.8247313825       -0.5584848119
 C        -5.2683993203        1.0807907025        0.3214902933
 C        -6.6204645449        1.6794375797        0.2567538378
 C        -7.2276666951        0.8519414843       -0.9922786017
 C        -8.2228884038       -0.1560067208       -0.6212332765
 C        -7.2878666866        1.4184972530        1.6397247756
 C        -6.8656491525        3.1750653924       -0.0976358609
 O        -5.0753710313       -0.0200865865        0.8291996354
 O        -6.7821045999        1.0470515298       -2.1056512385
 C        -9.1372456695       -0.5595456428       -1.7110645844
 C       -10.4628185806       -1.1689452046       -1.2404882489
 C       -11.6702244173       -0.3270453930       -0.6134174249
 C       -11.4203442676       -0.5135306034        0.9709447149
 C       -11.8629855412       -1.8609840057        1.6114216357
 O       -10.6050910722       -2.3737032489       -1.3371278049
 O       -10.8560798974        0.3878899268        1.5781693494
 C       -11.7464903715        1.1684185245       -0.9329047998
 C       -12.8226456279       -1.0772250127       -1.1816890368
 H         1.4043075969       -9.1195111437       -1.7867797349
 H         1.8720418663       -7.4872902245       -1.4842387556
 H         3.0021719389       -8.3437301382       -2.4287701702
 H         4.8749995624       -6.0047369820        1.6684073469
 H         4.2250277003       -4.8135129500        0.6805143239
 H         5.3625245234       -9.2656162162        1.4292218294
 H         3.5668389033       -9.7195514353        1.9092087697
 H         4.3987427466       -8.3165518071        2.5947422646
 H         4.6694620209       -7.7228042966       -1.4315514367
 H         5.3766225504       -6.6564097920       -0.0991661515
 H         5.9478286231       -8.2544694199       -0.2406095784
 H         2.3366195933       -5.3014729865        2.9187827683
 H         3.8278414201       -5.0299051780        3.6406412505
 H         3.7502757436       -0.7554660406        4.3045120540
 H         3.3992342287       -0.5907394139        2.5703819942
 H         0.9136761946       -2.7246659502        0.8000779996
 H         1.7545730624       -1.3036089492        1.0950529877
 H         0.1285934749       -1.5203990888        1.8221257422
 H         0.3661115418       -4.3814221783        3.1921355010
 H         1.4182885964       -4.0333558324        4.6060414458
 H         0.2446111719       -2.8535617606        4.1560104624
 H         3.9005793673        1.5777688713        3.9776613853
 H         2.2816306774        1.3984164029        4.6987174364
 H         2.5477745841        6.1118446095        2.3814429885
 H         3.7524950706        4.8446642000        2.8260761511
 H        -0.2370884784        4.2052650993        2.7608306848
 H        -0.2466294536        2.5781034142        3.3983814646
 H         0.0049452220        2.8581940654        1.6075041259
 H         1.7730747062        3.2148578563        4.9284398656
 H         2.9610251720        4.2513913275        4.3959009096
 H         1.2309188378        4.6338674344        4.3643349199
 H         3.4851346102        6.0821087182        0.0619269393
 H         4.6520802561        6.7050990652        1.3025931898
 H         7.0140909042        2.0669838046       -1.2118145201
 H         5.4932512537        2.1786020413       -0.4242249405
 H         6.6927566486        6.9877966160       -1.0228901256
 H         4.9337523737        6.6775160121       -1.5232283180
 H         6.3419621027        6.2038800635       -2.5634194572
 H         8.3364135945        4.6862000650       -1.0185804723
 H         7.6622282453        5.5410948662        0.3445625587
 H         7.3783734315        3.7817320584        0.4158930414
 H         6.2603242654        0.5444198478       -2.7313729587
 H         5.5517956999        2.0880695462       -3.3627859497
 H         1.6458972970        0.7288223674       -5.0672705643
 H         1.2927795011       -0.9967620852       -4.8509030148
 H         5.3067721409       -0.7712336137       -4.1993378515
 H         4.4956705091        0.4449553209       -5.0821520123
 H         3.9547987941       -1.2666858487       -5.0692425407
 H         5.0125670088       -1.7084088626       -1.8957317546
 H         3.3814636569       -1.8217365488       -1.4237327762
 H         3.9508320252       -2.5258374614       -2.9733867136
 H        -0.9086258456        0.2953680995       -4.9633520194
 H        -0.7326923801       -0.5400282031       -3.3081009960
 H        -3.1618502878        0.0718895948       -1.3184743054
 H        -2.6024977313        0.8387752403        0.3396582637
 H        -0.9568789539        4.3624878423       -2.2201121170
 H        -2.7767206203        4.0446827118       -2.4635878422
 H        -1.6225858255        4.3126767454       -3.8556125643
 H        -3.8129255956        2.2282211515       -3.4472679637
 H        -2.7794160306        1.9460609187       -4.6870145187
 H        -2.9324868464        0.6655540801       -3.6601002753
 H        -4.6777801096        1.8361741143       -1.6019799972
 H        -4.1191860326        2.8440407209       -0.2299887644
 H        -7.6016376353       -0.9357259771       -0.1912615718
 H        -8.7947159445        0.1332622585        0.2185540169
 H        -6.6918658041        2.1789999173        2.1458898227
 H        -7.1159007288        0.4556968503        2.0309732042
 H        -8.3240898014        1.6608196933        1.5832957574
 H        -7.9240135551        3.3780117618        0.1332348238
 H        -6.2516187759        3.9119256961        0.4751410913
 H        -6.6291982900        3.3802018652       -1.1327042924
 H        -9.1771734844        0.4076188666       -2.2619925431
 H        -8.5857513825       -1.3660611143       -2.3006057450
 H       -11.7926420840       -2.7440988795        0.9970056364
 H       -11.2922305324       -1.9894902207        2.5383889989
 H       -12.8586660716       -1.6357905169        1.8359795653
 H       -10.9869176824        1.5486787443       -1.5884366495
 H       -11.7458578080        1.6714642115       -0.0103714620
 H       -12.6720417597        1.3739071362       -1.4228980356
 H       -13.7612533583       -0.8117670284       -0.7964687507
 H       -12.8092443474       -0.9134553304       -2.2246358237
 H       -12.6974312344       -2.1633240489       -1.0033529465
 Na        1.2522039859        1.8554459060       -0.6582066309
