155

 C         2.6610987103       -7.9309851893       -2.0073301507
 C         2.8117191600       -8.4382940998       -0.5850230787
 C         3.5612717306       -7.5469888592        0.5138101379
 C         2.3770574655       -6.6435803723        1.0310134035
 C         2.3779373260       -6.4964306896        2.6718616031
 C         4.2820654496       -8.4514823131        1.6006159332
 C         4.6362120530       -6.6875452723       -0.1936607566
 O         2.2762258347       -9.4881649045       -0.2990333555
 O         1.6168873220       -5.9916520009        0.3704688549
 C         1.4883400547       -5.3008351976        3.1258271850
 C         2.0155307437       -3.9589387388        2.6656313005
 C         1.2324300398       -2.5975109244        3.1044148303
 C         2.3791068298       -1.5928957304        3.6892536542
 C         3.5227992313       -1.2493691103        2.7723870628
 O         2.9304768520       -3.8893222672        1.8888816845
 O         2.1888101948       -1.0853522355        4.7888865659
 C         0.7605264580       -1.8845790024        1.8156764158
 C         0.0398082103       -2.6593195550        4.0486882521
 C         3.9164430653        0.2866737026        2.7309485488
 C         2.9460804397        1.0291513238        1.8675436792
 C         2.5007901636        2.4305968609        2.4502058917
 C         2.5294052476        3.6044529838        1.2785641242
 C         3.3956297211        4.8456097857        1.3697217450
 C         0.9560535289        2.1491767985        2.8322480540
 C         3.3448760311        2.9167882921        3.6141061202
 O         2.4118302237        0.6442735455        0.8028787592
 O         1.9673561887        3.4375574608        0.1858741024
 C         3.9194464728        5.2655459855       -0.0113396308
 C         5.0488019650        4.3233947663       -0.4426058815
 C         5.6364614287        4.4653870669       -1.8905821028
 C         5.5864976739        2.9998560265       -2.6285355282
 C         5.9904639210        1.7562615448       -1.8775298937
 O         5.4143446070        3.4665903115        0.3596791743
 O         5.0690205199        3.0520209828       -3.7274458012
 C         4.7932020085        5.4101507266       -2.8466359484
 C         7.0770222877        4.9849105653       -1.6764393488
 C         5.2012341879        0.5185252164       -2.4415558602
 C         3.7447525053        0.6399917563       -2.3827197608
 C         2.8877055593       -0.4284199066       -3.1817394679
 C         1.4921417592        0.2572254742       -3.3499299732
 C         1.3627992531        1.3821796451       -4.3949972315
 C         3.6960044693       -0.7186684102       -4.4935631414
 C         2.6486904036       -1.7322698052       -2.3424938313
 O         3.2718309404        1.5651767871       -1.7718223685
 O         0.5803170576       -0.0384311988       -2.6242925398
 C        -0.0933668099        1.9931904552       -4.4296665011
 C        -0.2856894407        3.0069541355       -3.2435060848
 C        -1.6658669142        3.2579054838       -2.4547006053
 C        -2.1551788476        1.9804187461       -1.7967824372
 C        -3.3228980356        1.0877384661       -2.2980135705
 O         0.7032898816        3.4218941639       -2.7198999894
 O        -1.3868407315        1.5367301741       -0.9693151703
 C        -1.3533032455        4.1754800646       -1.2241999738
 C        -2.5642847974        3.9045757163       -3.5648657851
 C        -4.7395049305        1.4989593453       -1.8339199069
 C        -4.9476057468        1.3784761137       -0.3139292000
 C        -6.2295028881        1.9728740499        0.4303119307
 C        -7.3313428300        1.1694905898       -0.2744496692
 C        -7.6338627342       -0.1243941052        0.4835912982
 C        -6.0859406947        1.6371966069        1.9338391914
 C        -6.4741010449        3.4745269526        0.1745314510
 O        -4.1496988342        0.7268842530        0.2843802135
 O        -7.8729430466        1.5583434515       -1.2820517924
 C        -8.4568159551       -1.0782745280       -0.3198422091
 C        -9.9073737812       -1.2017928900        0.0776072595
 C       -10.8116975476       -0.1536003694        0.9044231764
 C       -10.3558130337       -0.6001641235        2.3838290808
 C       -11.1850647385       -1.7612244535        2.9673653421
 O       -10.3812541138       -2.3144821642       -0.1346915194
 O        -9.4732281882       -0.0443919570        2.9928702941
 C       -10.5510000589        1.2795783927        0.6923437790
 C       -12.2943402306       -0.6361023673        0.5759136963
 H         2.0715465042       -8.5731387913       -2.5507739849
 H         2.2404031904       -6.8459515188       -2.1283669821
 H         3.6909979106       -7.7897910043       -2.3541595632
 H         2.0226171147       -7.4178191345        3.1776014686
 H         3.4087791445       -6.0662863551        2.8322995659
 H         5.3304235741       -8.6152325250        1.2515966197
 H         3.7423359360       -9.3445647746        1.8499690788
 H         4.4493119965       -7.9552595182        2.5088208442
 H         4.1421257757       -5.9442151161       -0.8217851292
 H         5.4209252699       -6.1843690836        0.3658615420
 H         5.0973705059       -7.2771594782       -0.9736837336
 H         0.5372595433       -5.3250637085        2.5076165320
 H         1.3524805116       -5.3417089062        4.2171588115
 H         4.3793048232       -1.8320189121        3.0607419526
 H         3.4032551150       -1.5947215659        1.7647187948
 H        -0.3237187447       -1.9800822785        1.6884595587
 H         1.2126551035       -2.3325569825        0.9102241230
 H         1.1409438289       -0.8271380827        1.7794630908
 H        -0.6147035863       -3.3793604471        3.4599342150
 H         0.2453189240       -3.1905675232        4.9573308678
 H        -0.4113840387       -1.7092882651        4.2391689400
 H         4.9823031358        0.4648046991        2.3333439518
 H         3.8044222085        0.5549009931        3.7591544292
 H         2.7745964021        5.6550856250        1.8309172543
 H         4.2154685460        4.8401540809        2.1515111825
 H         0.4314358830        3.0224399191        3.2226274609
 H         0.9519246317        1.3812254824        3.5382030343
 H         0.5164565276        1.8600780070        1.8127727166
 H         2.8927891121        2.5756712887        4.5651401959
 H         4.3723347919        2.5233641114        3.5115293590
 H         3.2819117023        3.9786117499        3.5908501505
 H         3.1305155297        5.3493491551       -0.8128213319
 H         4.2362140387        6.3161084074        0.0675734315
 H         7.0801633666        1.5961886766       -1.7602284900
 H         5.5317289036        1.8548257918       -0.9007180051
 H         4.9023114000        6.4424519201       -2.6971320678
 H         3.7655981952        5.1691917815       -2.9558232341
 H         5.1274963334        5.1887435047       -3.8809704060
 H         7.5999415364        5.2168814104       -2.6250229690
 H         7.0415115818        5.9410439937       -1.2230391040
 H         7.7151871627        4.2968687348       -1.1533764544
 H         5.5263075761       -0.4646789423       -2.0625080597
 H         5.5064313695        0.4037857926       -3.4625106917
 H         2.0564785302        2.1889348179       -4.1223592925
 H         1.6160737659        0.8759648007       -5.3183504709
 H         4.6105137102       -1.3458155630       -4.4082892149
 H         3.9423284302        0.2030355593       -4.9400060033
 H         3.0961466141       -1.1544609960       -5.3025123803
 H         3.4260552169       -1.9644851420       -1.6700576052
 H         1.7094928444       -1.7091940535       -1.8296513794
 H         2.5825010710       -2.6080431552       -3.0720034094
 H        -0.2435179376        2.5997211981       -5.3255794916
 H        -0.7223690732        1.1227319821       -4.4773205198
 H        -3.3798514630        1.0298230055       -3.3800695101
 H        -3.0781366934        0.1551712714       -1.8354095892
 H        -0.6751272805        3.7063606504       -0.6076364299
 H        -2.2607800153        4.4415805762       -0.7779187600
 H        -0.9135393642        5.1688526058       -1.4686228206
 H        -3.4368055476        4.4083555479       -3.1950544886
 H        -1.8783459334        4.6381356871       -3.9906384524
 H        -2.7994705403        3.0240536141       -4.2915372829
 H        -5.5589218502        0.9184367959       -2.1665491394
 H        -4.9580156186        2.4982552512       -2.0954267877
 H        -6.6649054893       -0.4951322558        0.7020514443
 H        -8.0191551917        0.1044935581        1.4795715516
 H        -5.3498092959        2.3463153126        2.3497622891
 H        -5.9773427175        0.6051676136        2.1241064818
 H        -7.0548348277        1.8162344084        2.4237340586
 H        -7.4456142791        3.6504330101        0.6212947183
 H        -5.7419769768        4.1120227252        0.6384514855
 H        -6.6197576407        3.6924552967       -0.8495904423
 H        -8.3398595206       -0.7501469787       -1.3657627487
 H        -7.9943485063       -2.0333219151       -0.2823414136
 H       -11.2499946050       -2.6656647101        2.2766765452
 H       -10.6559486528       -2.0349606222        3.9031333367
 H       -12.2143404826       -1.4091427776        3.0595060175
 H        -9.5304277312        1.5791767241        1.0166153927
 H       -11.2280410124        1.8169871944        1.3278655240
 H       -10.6487839532        1.6136364913       -0.3367427659
 H       -12.9943538587       -0.2107962625        1.2394177993
 H       -12.6012275884       -0.3411970037       -0.4116644980
 H       -12.3671406356       -1.7472295244        0.6104731576
 Na        0.8556698629        1.6526963133       -0.9199268646
