155

 C         2.9098674844       -0.5187096808       11.6234822737
 C         2.8621417893        0.6070167111       10.6055516733
 C         4.0722545147        0.7855121608        9.6316413403
 C         4.2268172548       -0.4023799837        8.5787623176
 C         4.9947471974       -0.1087923715        7.1835867377
 C         3.9516093051        2.1721346822        9.0422353069
 C         5.3171384270        0.5810441943       10.5418572012
 O         2.0290494059        1.5235839052       10.5830365821
 O         3.8796764939       -1.5196564608        8.8567524603
 C         4.0013836123       -0.0394844340        6.0707431971
 C         4.4135446910        0.6120788215        4.7544197669
 C         3.9884170313       -0.3781865451        3.4457126093
 C         2.3840871409       -0.4202420558        3.4941604552
 C         1.7563219085       -1.7177541617        2.8353403209
 O         5.0489140194        1.6504667847        4.6486925172
 O         1.7454620588        0.4965440409        3.9365214762
 C         4.5267209436        0.2597523092        2.1590883442
 C         4.6296142967       -1.6889140595        3.6924188837
 C         0.2650083098       -1.8944067133        3.2617853616
 C        -0.6715700381       -2.2853363509        2.1161759096
 C        -2.0457194895       -3.0712395596        2.4596946881
 C        -3.2543724230       -2.2465894018        1.9454204143
 C        -4.5807965791       -1.9854781378        2.7100139154
 C        -2.0803594758       -4.2977148352        1.4828575476
 C        -2.2162808538       -3.4652137160        3.8802936109
 O        -0.3793595977       -2.0282016638        0.9739561763
 O        -3.1268055912       -1.9441138151        0.7862505435
 C        -4.9428834329       -0.5413087914        2.9817887432
 C        -3.9279084810        0.2087720102        3.8682986937
 C        -4.2938038042        1.5684819957        4.4337714466
 C        -3.5117080289        2.7186338414        3.5195045813
 C        -1.9619997014        2.8074861745        3.6713979140
 O        -2.8343063988       -0.2155348262        4.1584309289
 O        -4.1049243303        3.3913447493        2.7342573074
 C        -5.8205374805        1.9760684347        4.3307506634
 C        -3.6750300575        1.5927092553        5.9196558265
 C        -1.2168939806        3.3120880468        2.3325642139
 C        -1.5311162950        2.3567916686        1.1242143958
 C        -0.9854343708        2.9823230153       -0.3185582245
 C        -1.2731156921        1.7845602642       -1.3017584554
 C        -2.3579176987        1.9020352904       -2.3845330370
 C        -1.9055639328        4.1587141344       -0.5774715821
 C         0.5997734813        3.1813209612       -0.2408885620
 O        -1.9267854076        1.2476203526        1.3266726561
 O        -0.4192839197        0.8679621567       -1.4186231826
 C        -2.3567543029        0.8920116815       -3.5945262763
 C        -3.2550094827       -0.1783530278       -3.2244656945
 C        -4.0293111816       -1.1864703757       -4.2418181994
 C        -3.0169660832       -2.3307167441       -4.7162136932
 C        -3.7350162179       -3.2942590446       -5.6899637923
 O        -3.5586274210       -0.4568083944       -2.0766591848
 O        -1.8530954757       -2.4494102492       -4.4616019260
 C        -5.2598380796       -1.8217841859       -3.5693903189
 C        -4.4716205315       -0.3944781224       -5.4692023181
 C        -3.5312289482       -3.1286582855       -7.1659950861
 C        -2.0909216543       -3.1455091784       -7.7277608667
 C        -1.7511428623       -2.1688831036       -8.8438940855
 C        -1.1731802585       -0.8820795107       -8.1449428077
 C         0.4529713419       -0.7295393436       -8.2341552379
 C        -0.8042360971       -2.9151444297       -9.8589062041
 C        -3.0426746850       -1.6421580621       -9.7061384302
 O        -1.1845718672       -3.9303911916       -7.4007393870
 O        -1.9282787782       -0.1967995065       -7.5161891849
 C         1.1795147203        0.4771267107       -7.6618513973
 C         2.4987491484        0.8065729731       -8.5604932038
 C         3.6507523123        1.5878875201       -7.7708514376
 C         2.9675381359        3.0836122852       -7.5309786858
 C         2.9905446916        4.1239076937       -8.5977610795
 O         2.5259047784        0.7520396405       -9.7795488396
 O         2.1999214993        3.2517441946       -6.5522137979
 C         4.0266211958        0.9645914004       -6.4063006632
 C         4.8147572802        1.4817112911       -8.7829276171
 H         3.1316531318       -1.5030044021       11.2788078301
 H         3.7965586287       -0.2667873239       12.3217324408
 H         2.0099603702       -0.7523908065       12.2132450931
 H         5.5254523797        0.8484906151        7.2121987087
 H         5.7655562622       -0.8999200571        6.9524224599
 H         3.7894813093        2.8517820298        9.8607060362
 H         3.0151750231        2.2661149239        8.4697681825
 H         4.8413193918        2.2744662476        8.3690021001
 H         5.2543107362       -0.3672953119       10.8780850252
 H         6.2707265532        0.7203816269        9.9437289684
 H         5.3387372862        1.2418851529       11.4647114841
 H         3.6826023226       -0.9797025549        6.0008051059
 H         3.1868572906        0.6025550820        6.3784116663
 H         1.9960766461       -1.7882392882        1.7439406471
 H         2.3088451936       -2.5485397844        3.2790146816
 H         4.2943401709        1.3330694012        2.0472428280
 H         4.0711905081       -0.2364242582        1.2736876054
 H         5.5723069440        0.0511326880        2.1099770316
 H         3.8584824221       -2.3206686028        4.2141438236
 H         4.8971714976       -2.1640727718        2.6954298234
 H         5.6378849427       -1.5177293638        4.1819824974
 H        -0.1539277128       -0.9530084185        3.5382966064
 H         0.1953369335       -2.4632632555        4.2172066625
 H        -5.4048352035       -2.5802132746        2.2411631944
 H        -4.4283499524       -2.3746197469        3.6609453214
 H        -1.7203551498       -4.0460889243        0.5293841675
 H        -3.0745961334       -4.6484836561        1.4273025738
 H        -1.2803939849       -4.9543114050        1.8764761985
 H        -1.3180809285       -4.0412002949        4.1025850827
 H        -2.3929979381       -2.6013554091        4.4706637600
 H        -3.0616208827       -4.0957762838        4.0539016688
 H        -5.1170535660        0.0328254599        2.0776017019
 H        -5.8751940114       -0.5444864739        3.5453007816
 H        -1.8269338558        3.5250176967        4.5190803068
 H        -1.5122437436        1.8984984795        4.0157576926
 H        -6.3405738703        1.4084009937        5.0666688041
 H        -6.1782956109        1.9431031047        3.3183892649
 H        -6.0939013355        3.0402187117        4.6251363969
 H        -4.1788341409        2.3236551724        6.5451829114
 H        -3.6828813910        0.6826715748        6.5464955729
 H        -2.6188727669        1.9100376055        5.9131418210
 H        -0.1549556042        3.3886671174        2.3452530122
 H        -1.5833659345        4.3547219812        2.1978608451
 H        -3.4326264346        1.7307629084       -1.9867255144
 H        -2.3518824278        2.9210939852       -2.7118760381
 H        -2.0695154592        5.0326237448        0.1579382826
 H        -2.8155038633        3.5961600019       -0.7895652409
 H        -1.6122140590        4.6390539432       -1.5233016387
 H         0.8486556757        4.2054633377       -0.0023381518
 H         0.8998741122        2.5773179567        0.6469667639
 H         1.0859183955        2.7909546777       -1.1069279060
 H        -2.6462988160        1.4448631782       -4.4866768668
 H        -1.4208584488        0.3846213008       -3.7532801170
 H        -3.6214415783       -4.3168015520       -5.1723984039
 H        -4.7606101455       -3.1054366590       -5.4996985423
 H        -5.8863285492       -2.4798684385       -4.1643095836
 H        -5.9883232834       -1.1398909036       -3.1552035208
 H        -4.8594264908       -2.3602153419       -2.7718739358
 H        -4.8805826989        0.5634176586       -5.1966121101
 H        -3.7204904729       -0.1430469616       -6.1929094424
 H        -5.3576783204       -0.8185789676       -6.0881871309
 H        -4.0415134401       -2.1873147751       -7.5162760933
 H        -4.1732867940       -3.9254257310       -7.5818178288
 H         0.7882799302       -1.5673883747       -7.6375554840
 H         0.7862991840       -0.7661384752       -9.2834650487
 H        -0.4903797257       -2.2832337302      -10.7195666671
 H        -1.2926779803       -3.8548582547      -10.1968697899
 H         0.0961504728       -3.3281157851       -9.4321343263
 H        -3.5844500466       -2.3783615373      -10.2811899808
 H        -3.8069102287       -1.0672950563       -9.0681570442
 H        -2.6704079265       -0.9824021648      -10.4633401891
 H         0.5865480287        1.3701843956       -7.8579299296
 H         1.4144526522        0.4461113877       -6.6095215220
 H         2.8770660609        5.1442212918       -8.1115817075
 H         3.8730690229        4.1440609932       -9.2287410151
 H         2.1632920598        4.1299273105       -9.2749990184
 H         5.0016436976        0.4764076482       -6.5417770131
 H         3.3104727679        0.2356603697       -5.9212299330
 H         4.0958279592        1.7886398255       -5.7079573469
 H         4.9524093348        0.4735803882       -9.1159850804
 H         4.4586156928        2.0499729996       -9.6156488126
 H         5.6849161950        1.9162285081       -8.3092329329
 Na       -1.8786361383       -0.5145551274       -0.2179907733
