155

 C         0.9596184976       -7.9033920343       -1.1427293996
 C         1.7507345998       -7.8725968508        0.0800147227
 C         3.2370224623       -7.4210022885        0.2007873916
 C         2.8584705012       -5.9149099007        0.8925306503
 C         2.5104815005       -5.8531919339        2.3940961906
 C         4.2300308174       -8.2479486930        1.1586385355
 C         3.8978101417       -7.0954335279       -1.1427976389
 O         1.1929657616       -8.2226453819        1.1165393890
 O         2.8014960499       -4.9573031416        0.1339980604
 C         1.0107036075       -5.4286723256        2.5813596819
 C         0.7590936865       -4.2649529269        3.4992509700
 C        -0.2539677828       -3.0931646416        3.0857976015
 C         0.6748030331       -1.8653208896        2.5789793104
 C         1.6933034867       -2.2340688003        1.4745361934
 O         1.4738041155       -4.2011504366        4.4879406975
 O         0.5415760579       -0.7864797242        3.1648076273
 C        -1.3007013160       -3.4088150413        1.9887999510
 C        -1.0469219025       -2.5468491280        4.2470851644
 C         2.8401844950       -1.2043634088        1.2588569988
 C         2.3095047667        0.1693131761        0.7447820791
 C         2.6048870672        1.6394105824        1.4986503816
 C         3.6600377180        2.2775483900        0.5711667997
 C         5.1712998669        2.5897063397        0.9855610863
 C         1.2402727930        2.2920438065        1.4753214607
 C         3.1027129996        1.4861904102        2.9729185021
 O         1.6869070145        0.2472765100       -0.2833841504
 O         3.3026981327        2.5317379076       -0.5583259034
 C         5.7688829335        3.5699999487       -0.1099960180
 C         6.0157519905        2.7669707035       -1.4102804769
 C         6.2013582914        3.5725530335       -2.7469848742
 C         5.1413329913        3.0218406594       -3.8031967949
 C         5.3713984210        1.5041410107       -4.4080108098
 O         6.1069270827        1.5889773470       -1.3010505209
 O         4.1812159805        3.6996214812       -4.0716377497
 C         5.9644714223        5.0569961792       -2.5857910017
 C         7.6639003682        3.2561007948       -3.2657428436
 C         4.2801122488        0.9847942073       -5.3839989088
 C         2.9119047658        0.8240382133       -4.7517221391
 C         1.6062508871        0.3364989117       -5.4217346449
 C         0.5321161039        1.4648466065       -5.1260206056
 C         0.8240146844        3.0551894199       -5.3212916594
 C         1.7108474148        0.1946602543       -6.9511727061
 C         1.2352333674       -0.9187844673       -4.7262028525
 O         2.6871764264        1.0203122878       -3.5447674088
 O        -0.4679960704        1.2091512881       -4.4420684856
 C        -0.3610435422        3.8345933171       -4.7579316746
 C        -0.3291346974        3.8040667702       -3.1779896041
 C        -1.5836565461        3.7998012633       -2.2769429730
 C        -1.9641492722        2.1720783635       -2.0494790963
 C        -3.4784072336        1.7206240135       -2.1118695355
 O         0.7649894977        3.7704434130       -2.5920775034
 O        -1.2065848416        1.3078014627       -1.8561933600
 C        -1.3158681961        4.4427215770       -0.8336409914
 C        -2.7560322989        4.5188649815       -2.9738530344
 C        -4.2652125142        2.1890769654       -0.8431362809
 C        -3.8120891735        1.4637268298        0.4300118487
 C        -4.5522142705        1.8379893247        1.7442518859
 C        -6.0772850123        1.4071061756        1.4604484801
 C        -6.6295336215        0.1298125932        2.0791075006
 C        -3.9023979842        1.0427542992        2.9898531311
 C        -4.5255655907        3.3362443876        1.9284282031
 O        -3.0619480705        0.5260859022        0.3058394757
 O        -6.8046861387        2.0678885462        0.7762334425
 C        -8.0711326416        0.3838459880        2.4461436835
 C        -8.6804132790       -0.8372781444        3.1113983298
 C       -10.0680454171       -0.5594865363        3.8996354614
 C        -9.7666161773        0.3388511953        5.1375844313
 C        -8.5478393196        0.0000693319        6.1266020892
 O        -8.1111428046       -1.8951012599        3.0403316651
 O       -10.3442959446        1.3938962435        5.3132595064
 C       -11.1752328178        0.2812078234        3.0781711165
 C       -10.6276637028       -1.9188323310        4.3266824029
 H        -0.0587029797       -8.2047485312       -1.0797320207
 H         0.9879814867       -6.9670160609       -1.6996866909
 H         1.3565175760       -8.6829603045       -1.7747098276
 H         2.7178087088       -6.7849808465        2.8823478974
 H         3.0421192593       -4.9281584927        2.5634035089
 H         4.0669068783       -8.0948395022        2.2755130078
 H         5.2942873168       -8.0150684567        0.9514565710
 H         4.1768748259       -9.3074368584        0.9925429847
 H         3.1481717762       -6.8324652793       -1.8832462679
 H         4.4420930707       -6.1753631817       -1.0060788581
 H         4.3955831149       -7.9569286054       -1.5039266176
 H         0.5358871204       -5.3046293996        1.5943433297
 H         0.5242608025       -6.2873882359        2.9372166524
 H         2.1742595119       -3.1781758838        1.7510654194
 H         1.2557091808       -2.5252272546        0.4735641837
 H        -2.0516873554       -2.6621128949        2.0659212241
 H        -1.8430311152       -4.2686733640        2.1574120774
 H        -0.8425407216       -3.3967001533        0.9536121725
 H        -1.7687294797       -3.3457469219        4.6315221480
 H        -0.4745467658       -2.2864877125        5.1263903289
 H        -1.5989673469       -1.6865411973        3.9457638802
 H         3.5668391913       -1.7201595621        0.5938625083
 H         3.2565279371       -0.9797164263        2.1947132458
 H         5.2469237435        3.0265994883        1.9722456147
 H         5.7018284069        1.6544585748        0.9744449102
 H         1.0636727932        3.2090200859        2.1428464141
 H         0.4269500548        1.5884712005        1.7626121289
 H         0.9989070350        2.7377909675        0.5557435587
 H         2.4101807843        0.7408575515        3.4894960049
 H         4.1492051117        1.1860045488        3.0698035375
 H         3.0499265985        2.3853587693        3.5602071250
 H         5.0412111821        4.3204998909       -0.3619750333
 H         6.7071978962        3.9030577390        0.2860600145
 H         6.3532446573        1.6950888769       -4.8941061652
 H         5.4860509844        0.8591480376       -3.4977292514
 H         6.5587192953        5.3492711043       -1.7474750078
 H         4.9483262887        5.2571131798       -2.3945022370
 H         6.2593409131        5.5716397502       -3.5477147442
 H         7.8135514354        4.0887228035       -3.9867056280
 H         8.4269115496        3.3016105388       -2.4897215399
 H         7.7407654331        2.2537911461       -3.7442153367
 H         4.5571021262        0.0923842788       -5.8125968973
 H         4.1505943589        1.4680954514       -6.3504710638
 H         1.7176136771        3.2616860209       -4.6638928050
 H         1.0555524921        3.2606720283       -6.3810102854
 H         2.2675747229       -0.6543151510       -7.1754063634
 H         2.2347736100        0.9438282837       -7.4331679144
 H         0.7690830245        0.0484925888       -7.4426492161
 H         0.5527491996       -0.7130968432       -3.9509946083
 H         0.7632330434       -1.6630175335       -5.3892086175
 H         2.1118645763       -1.4688127453       -4.2990840285
 H        -0.4076372395        4.8883277180       -5.1160942213
 H        -1.3266401999        3.4716467440       -5.1935483599
 H        -3.9855313739        1.9289837737       -3.0897582412
 H        -3.4711137939        0.6253274285       -2.1501429188
 H        -0.3165015282        4.1109019593       -0.4276853139
 H        -2.1303771124        4.2317412581       -0.1319967176
 H        -1.3342619412        5.5576632538       -0.9668501273
 H        -3.8156547699        4.3995099938       -2.6274743054
 H        -2.4673695079        5.5143992210       -3.0964325341
 H        -3.0391871756        4.2310932163       -3.9493457817
 H        -5.3214251798        1.9283833165       -1.0671109181
 H        -4.1732157020        3.2929166575       -0.8853895089
 H        -6.5252664508       -0.5707596690        1.2823164226
 H        -6.0683360170       -0.1986645225        2.9186529099
 H        -2.8502135403        1.2111688367        2.9597661472
 H        -4.0069148608       -0.0270351819        2.8250863456
 H        -4.5047740335        1.1695978247        3.8852227337
 H        -3.5854926953        3.7745743803        2.3862652928
 H        -4.5647229888        3.8876393779        0.9851106065
 H        -5.4198741498        3.6473916058        2.5028386524
 H        -8.2960402218        1.2415938081        3.0473229038
 H        -8.6004593327        0.6350766049        1.5420300685
 H        -7.6869527110       -0.3829221923        5.5515284608
 H        -8.2780931794        0.9324636638        6.6340194065
 H        -8.8648006310       -0.7293013894        6.8479990766
 H       -10.6802249212        1.2744762759        2.8402971514
 H       -12.1074807695        0.4675496663        3.6487652450
 H       -11.4405707109       -0.2173514384        2.1260226430
 H       -11.2326123734       -1.9426523022        5.1960797967
 H       -11.1917623908       -2.4283870729        3.5318614518
 H        -9.7659452888       -2.5990362826        4.4091739739
 Na        1.0504662000        1.8111378941       -2.0309603320
