155

 C         3.1878396805       -0.8647140535       11.3716072293
 C         3.1568615288        0.3669081025       10.5269362658
 C         4.4323729868        0.7713419122        9.6971053144
 C         4.3628855730       -0.3075027919        8.5273009610
 C         4.8680552421        0.0769385110        7.1203421568
 C         4.1612622394        2.3263296297        9.1517432936
 C         5.7431007381        0.6508248719       10.5194179432
 O         2.1861015985        1.0697102673       10.2741542054
 O         3.7808828122       -1.3700739237        8.7015324221
 C         3.7878647112        0.2408099450        6.0270578682
 C         4.4243294642        0.3995493867        4.6855977299
 C         3.8657532615       -0.4385414150        3.5046461749
 C         2.3114313747       -0.5286107854        3.5945891566
 C         1.5728984236       -1.8138143860        3.3080153329
 O         5.3844838538        1.0971355959        4.5702979653
 O         1.6918441940        0.5052267028        3.6380096279
 C         4.1975551904        0.2452794053        2.1400163408
 C         4.6743623837       -1.8444347149        3.5366242659
 C        -0.0001396799       -1.6971878119        3.6214557945
 C        -0.9114352959       -2.0589264081        2.4548133219
 C        -2.0447712995       -3.1077115742        2.7711692741
 C        -3.3536151615       -2.4586401372        2.1117297779
 C        -4.5212561121       -1.8846248307        2.8347450904
 C        -1.6885661698       -4.2749569600        1.8703319851
 C        -2.3287598199       -3.5630592957        4.2363533553
 O        -0.6029223343       -1.7500150297        1.2840843029
 O        -3.4174604877       -2.3171866943        0.8927828024
 C        -4.5263084369       -0.2969331030        2.7985783824
 C        -3.8189070175        0.2975777783        4.0558264000
 C        -4.1729127091        1.7785382834        4.4454590482
 C        -3.2928089358        2.5528329492        3.3120973587
 C        -1.7650138529        2.7332701221        3.6838798879
 O        -2.8849503557       -0.2186316452        4.6013322941
 O        -3.8140713524        2.9218679918        2.2633336673
 C        -5.6617928586        2.1185539786        4.2380910130
 C        -3.5647212836        2.1137127635        5.8671937790
 C        -0.9782807903        3.3024656912        2.4254393286
 C        -1.3244248060        2.4080368251        1.1289999611
 C        -0.9850907648        2.9804596788       -0.3116319634
 C        -1.2237759844        1.7841989212       -1.3184884012
 C        -2.0663895606        1.9627403134       -2.5830830252
 C        -1.9623571374        4.1906928437       -0.3735737891
 C         0.4372880537        3.3586686136       -0.4082451015
 O        -1.9039917629        1.3703975495        1.2812421361
 O        -0.5281557327        0.7669602992       -1.0969043812
 C        -2.1768442034        0.6220427031       -3.4457939189
 C        -3.2083552629       -0.3367605371       -3.0552267662
 C        -4.0664090812       -0.9414989306       -4.3069479088
 C        -3.0224942588       -1.9657010125       -4.7950024492
 C        -3.5270805765       -3.3292677634       -5.4701596860
 O        -3.3949871427       -0.7654287141       -1.9197129666
 O        -1.8468783132       -1.6488898643       -4.7888588993
 C        -5.3954497723       -1.7018593350       -3.7075694886
 C        -4.6062410988       -0.1130581656       -5.3997249851
 C        -3.6424192228       -3.0189844147       -6.9580310666
 C        -2.2454171309       -3.0181700934       -7.6856641815
 C        -2.0479718275       -1.9906719753       -8.8841575667
 C        -1.2957655865       -0.7950685131       -8.1513735971
 C         0.2264676300       -0.7931001544       -8.3906441714
 C        -1.2134458842       -2.6782474393       -9.9070932177
 C        -3.3146141169       -1.4341738754       -9.4188835992
 O        -1.4647137507       -3.9463429430       -7.5545596434
 O        -1.8379111874       -0.0764743610       -7.3629262956
 C         1.0214510152        0.4300649792       -7.9204864194
 C         2.2301274770        0.8542768481       -8.8041328304
 C         3.4041022046        1.4209209210       -8.0727868879
 C         2.9349859404        2.9048426965       -7.5778963504
 C         2.6851473643        3.8965914052       -8.7230600040
 O         2.3516001825        0.5929841431       -9.9982483733
 O         2.6902876060        3.1774075069       -6.4248645468
 C         3.8361316011        0.5036200192       -6.9180555095
 C         4.6278370123        1.5185865802       -9.1174189478
 H         3.0896191599       -1.7928541281       10.8300986595
 H         4.0527646994       -0.9724758350       12.0090377548
 H         2.3089720914       -0.9373500164       12.0728179228
 H         5.4844044352        1.0122932549        6.9803931783
 H         5.5312771282       -0.6805463907        6.6786860456
 H         4.0146600442        2.9408896117       10.0064351848
 H         3.3413300947        2.3279862060        8.4981598693
 H         5.1061856936        2.6677452819        8.6920625650
 H         5.8442359310       -0.4044598228       10.9762213910
 H         6.6026401023        0.6631406387        9.9126567251
 H         5.7405778788        1.3409160763       11.3277295365
 H         3.1312947262       -0.5057441508        6.0117273687
 H         3.3655609762        1.1354616207        6.4592582189
 H         1.6492580082       -1.9962782528        2.2313167853
 H         2.0667868582       -2.6450383131        3.7621056176
 H         3.5425935986        1.1581699120        2.0908654034
 H         4.0122268215       -0.4044543857        1.2590313293
 H         5.2305825904        0.6579315180        2.1743102791
 H         4.2078453520       -2.4466134346        4.3429139435
 H         4.5207069089       -2.4629524737        2.6073179718
 H         5.7451970042       -1.7209951996        3.9027213131
 H        -0.1368806985       -0.6497622967        3.7097692637
 H        -0.3790033292       -2.1026376334        4.5834426083
 H        -5.4373704906       -2.3373003162        2.2853043241
 H        -4.6845010315       -2.2356124988        3.8200269133
 H        -1.5920952210       -3.8963106422        0.8576702324
 H        -2.5308265914       -4.9013875017        1.8958404430
 H        -0.6689078692       -4.7640573078        2.0739477454
 H        -1.5379404732       -4.2023407535        4.6885769853
 H        -2.5029461936       -2.6412772387        4.7649894324
 H        -3.3338430223       -3.9575473570        4.2932797019
 H        -3.9794729837        0.0824289574        1.9279661782
 H        -5.5712423186        0.0025987701        2.8117667269
 H        -1.5854556631        3.3409581089        4.6000137001
 H        -1.3918334619        1.7909039775        3.8942189139
 H        -6.2497185772        1.2951889870        4.6635328904
 H        -5.7934406877        2.4237689365        3.2121623583
 H        -6.0251734211        2.9324669565        4.9104775272
 H        -3.3706935680        3.1321253452        5.9204794900
 H        -4.2368988575        2.0565658794        6.7312838570
 H        -2.7758598213        1.3889486600        6.1422267853
 H         0.0803521104        3.3958904924        2.5768843687
 H        -1.2960629724        4.3616726949        2.2750025030
 H        -3.0868767747        2.0555570662       -2.0747733381
 H        -1.8051810644        2.8128062842       -3.1613819012
 H        -1.6089794153        4.9060004284        0.3922183089
 H        -2.9844848856        3.9886671316       -0.1605853147
 H        -1.8651249439        4.6810779442       -1.3090522310
 H         0.7732225903        3.5703778706        0.5680432060
 H         0.8959193832        2.4296674293       -0.7620608370
 H         0.7616515666        4.2148724009       -1.0020197467
 H        -2.1389569542        0.8703285150       -4.4986678217
 H        -1.1871289086        0.2274086544       -3.2760794378
 H        -2.8781225012       -4.2534124052       -5.1995701616
 H        -4.5156028346       -3.5321806495       -5.0351059882
 H        -5.8716394849       -2.2852159000       -4.5445540606
 H        -6.0428580371       -1.0303536800       -3.2534612328
 H        -5.2088390283       -2.4325385087       -2.9544815849
 H        -5.2626799860        0.6850500593       -5.1364055515
 H        -3.8537375100        0.3450873211       -5.9721565484
 H        -5.2687959921       -0.6629130556       -6.1052203674
 H        -4.1557284610       -2.0576547284       -7.0441043018
 H        -4.2993738827       -3.7235242372       -7.4435034994
 H         0.6092138200       -1.5124419392       -7.6985039711
 H         0.5046178466       -0.9672289853       -9.4293087429
 H        -0.8508495334       -2.0057463036      -10.6851996463
 H        -1.8269043762       -3.3977047268      -10.4207987343
 H        -0.3524077812       -3.1936441118       -9.5893310759
 H        -4.0952025507       -2.1284709829       -9.6053476445
 H        -3.6864544674       -0.6476347571       -8.6988540950
 H        -3.2252363996       -0.9461479516      -10.3286897959
 H         0.3252537949        1.3222996050       -7.8537715282
 H         1.3364914665        0.2453508715       -6.8905286127
 H         1.6207395919        4.1267989480       -8.7963245510
 H         3.2676351291        4.7955059838       -8.5720052751
 H         2.9693361214        3.6331697239       -9.7059683924
 H         3.8033991358       -0.5535643122       -7.2205949850
 H         3.2147103588        0.6361713767       -5.9893945174
 H         4.8635613954        0.7769445267       -6.6694213160
 H         5.1458249901        0.6027457016       -9.0537968006
 H         4.1752803759        1.6545187262      -10.0632680145
 H         5.2031023331        2.4226249573       -8.9366263957
 Na       -1.7634606523       -0.7160860122       -0.1596442266
