155

 C         1.6110201983      -10.6970524076       -0.4666375925
 C         1.3964985323      -10.6453636370        1.0885208911
 C         1.3800879502       -9.3175101401        1.8801823454
 C         0.4870954342       -8.2663290156        1.1943479055
 C         0.9864588103       -6.7558214461        1.3158829733
 C         0.8770638851       -9.4729117899        3.3251800454
 C         2.8980815340       -8.7946171450        1.9489065664
 O         1.3824310052      -11.7093782796        1.6357756669
 O        -0.6591718033       -8.6447253804        0.8543436468
 C         0.1314866312       -5.5637573684        0.7179559792
 C         0.8740555676       -4.2840496183        1.2438130265
 C         0.1514205293       -2.8099909149        1.2072975545
 C         1.2832271834       -1.8470451180        1.1745367963
 C         2.4483321066       -1.9837841702        0.0078470641
 O         2.0353769916       -4.3530210004        1.6603271668
 O         1.3935575015       -0.9666947027        1.9926197166
 C        -0.7452735732       -2.7295629539       -0.0338560599
 C        -0.4558521399       -2.6621658153        2.6815347643
 C         3.3397229105       -0.7069022375       -0.2032716107
 C         2.5610412859        0.6016013860       -0.5673655964
 C         2.6620251129        2.0067422028        0.2458533096
 C         3.1882844679        3.0455064920       -0.7781842962
 C         4.5721434295        3.8285493837       -0.7801754064
 C         1.2425055909        2.2830000768        0.9126324065
 C         3.7042567018        1.8280335632        1.4465874989
 O         1.8643473371        0.5829332305       -1.5247008432
 O         2.4871409851        3.5551097818       -1.6254060234
 C         5.4033183524        3.5667165448       -2.0385053607
 C         5.4411327367        2.0318931731       -2.4081290259
 C         6.0221909127        1.4935832233       -3.7478519273
 C         5.0069223051        1.9237985695       -4.9037430270
 C         4.2727568216        0.7752925956       -5.6209584927
 O         4.8390723069        1.2805181710       -1.6249771174
 O         4.8112074820        3.0752601178       -5.2362979673
 C         7.4010033185        1.9971268099       -4.0876550002
 C         6.0111122544       -0.1525774507       -3.4852033092
 C         3.2112395489        1.1811568082       -6.5865542521
 C         1.9365938612        1.6248128267       -5.7888512123
 C         1.1416736092        2.7473658985       -6.3197004068
 C        -0.1525597361        3.0192104998       -5.5178102254
 C        -1.1340381149        4.1498457180       -6.0652438913
 C         2.1439694415        3.8656017090       -6.0748182090
 C         0.8545907049        2.6573191369       -7.8275589138
 O         1.8284710213        1.2986779025       -4.6082194401
 O        -0.6312067718        2.1352609545       -4.8431335692
 C        -2.1118117296        4.5490657647       -4.8011009733
 C        -1.3824413328        4.6485797680       -3.3850811446
 C        -2.2542385817        4.5074723187       -2.0470704434
 C        -2.3024541323        2.9618160536       -1.4825300125
 C        -3.6051708527        2.2100068178       -1.0750993076
 O        -0.1962805772        4.6631759417       -3.2724738616
 O        -1.2280234245        2.3641374047       -1.3740734779
 C        -1.4733634862        5.2987809070       -0.9531040963
 C        -3.7008926747        5.1242939505       -2.3169898202
 C        -3.8862934726        2.4458423443        0.4327869182
 C        -3.0291414848        1.6614824064        1.4136975799
 C        -3.1896227185        1.7622853032        2.9824463017
 C        -4.5997907869        1.4061450631        3.4547484513
 C        -5.0468903512        1.7496429555        4.9062000836
 C        -2.2897308551        0.8313626009        3.7487420633
 C        -2.7552971781        3.2090694595        3.3511285518
 O        -2.2364676095        0.8353323385        0.9661915907
 O        -5.3146906509        0.9449308485        2.5501024229
 C        -6.5117339417        1.4533935567        5.1639425898
 C        -6.7025614416        0.1677815269        5.9548568952
 C        -8.1497170595       -0.3610966623        6.2594036641
 C        -8.9543681640        0.6591795120        7.3425767361
 C       -10.1236387792        0.0366841373        8.1689487061
 O        -5.7136804377       -0.3887130572        6.3618510316
 O        -8.5311621502        1.7532449752        7.5162447475
 C        -8.9244433949       -0.2867374838        4.9257275900
 C        -8.0451038763       -1.7607195449        6.9505202888
 H         1.8945340202      -11.6610705661       -0.8193380355
 H         0.6833048784      -10.4631447850       -1.1085956485
 H         2.4018124736      -10.0258497180       -0.8621820029
 H         1.2317391177       -6.6080439893        2.4019525992
 H         1.9580508546       -6.7098923788        0.7949311011
 H        -0.0636123272       -9.9806748552        3.2381807584
 H         0.6617718618       -8.4565365475        3.6494580278
 H         1.5069902312      -10.0256329129        3.9506092657
 H         3.2882632639       -8.5389932605        0.9894794493
 H         2.8202886186       -8.0593967484        2.7520569555
 H         3.4586244311       -9.6650423836        2.2581186396
 H         0.1999483668       -5.5730681165       -0.3975551949
 H        -0.9419672091       -5.5761158162        1.0518152333
 H         2.9779141628       -2.9232001140        0.0830247407
 H         1.8230882667       -2.0649370648       -0.8529053259
 H        -1.4999660331       -1.9637236109       -0.0463823758
 H        -1.2684653887       -3.6209528179       -0.1689719457
 H        -0.1541988580       -2.4177022929       -0.9523801974
 H        -1.2407037693       -3.4476875013        2.8961905825
 H         0.4099954046       -2.8979610092        3.2790538082
 H        -0.7033879321       -1.6528164502        2.8759492312
 H         3.8465985812       -0.9768693917       -1.1185369800
 H         4.0296789528       -0.5068982197        0.5916965663
 H         4.1984095137        4.8515722152       -0.9458963046
 H         5.0455758288        3.8424601506        0.1736032005
 H         1.2941055387        3.2476503004        1.4425135544
 H         1.0156697498        1.5107976959        1.5886663062
 H         0.4935521251        2.3321225648        0.0595350892
 H         3.5131015903        0.9871632994        2.1480595121
 H         4.7784816244        1.7341068502        1.2848182895
 H         3.4966588404        2.6134432995        2.1405757451
 H         4.8930634752        4.1195919843       -2.8291251752
 H         6.4421690372        3.8703797669       -1.8186021221
 H         4.9798345537        0.2807984961       -6.2519180355
 H         3.8151522536        0.0428354814       -5.0402606973
 H         8.1481362591        1.2610513333       -3.7425991356
 H         7.6373248890        2.9158702445       -3.5751438457
 H         7.5371499523        2.1121637439       -5.1818118466
 H         6.0172633497       -0.7398940417       -4.3694402297
 H         6.8450418225       -0.4698363220       -2.9943198035
 H         5.0888848003       -0.3239528145       -2.9109016615
 H         2.8021775962        0.3349446027       -7.1271662522
 H         3.5389464705        1.8913633614       -7.3064908271
 H        -0.7884559347        5.0378675047       -6.5059925223
 H        -1.7864921438        3.7305435622       -6.7963036429
 H         3.0462887914        3.7330643785       -6.7262256502
 H         2.4508754159        4.0074421057       -4.9523310739
 H         1.7330908492        4.8772760167       -6.1601123717
 H         0.5049370978        3.6248387966       -8.1891604734
 H         1.7918768440        2.5472549203       -8.3720061129
 H         0.1066886559        1.9048423435       -8.1287298011
 H        -2.4475611581        5.5782879111       -4.8362273091
 H        -2.8897371809        3.8586497302       -4.7403456141
 H        -4.4035932952        2.6029813037       -1.6591392604
 H        -3.3173397542        1.1319059587       -1.2154712089
 H        -0.5423064239        4.7709184952       -0.6524087476
 H        -2.0962421065        5.3004345059       -0.0846204382
 H        -1.2209874758        6.3092491908       -1.2869612292
 H        -4.3614642218        4.9810371553       -1.4397090545
 H        -3.5320053409        6.2286720061       -2.3723813824
 H        -4.0022341993        4.7153855776       -3.2802534731
 H        -4.9566318565        2.1773636724        0.6385038705
 H        -3.7998427513        3.5483763744        0.6006000853
 H        -4.3863312564        1.2015290819        5.5565634073
 H        -4.7553010662        2.7900674951        5.1181938329
 H        -2.7930577212       -0.0765158564        4.0315473598
 H        -1.8248867427        1.3354442349        4.6483913130
 H        -1.4813936913        0.2988127185        3.2343417532
 H        -2.4808615390        3.3869033858        4.4080438830
 H        -1.8955805608        3.3799702409        2.7678786502
 H        -3.4263302096        3.9484602476        2.9247570570
 H        -7.0276765485        2.3458367339        5.5488371192
 H        -6.9966085022        1.2434244284        4.1142888910
 H        -9.6223118443       -0.6431078152        8.8053355333
 H       -10.6823133398        0.7393541069        8.7149837160
 H       -10.8121888728       -0.4297139783        7.5262033180
 H        -8.9272280641        0.7654672524        4.6706309324
 H        -9.9086511688       -0.6586929926        4.9882875008
 H        -8.4013622707       -0.8048061411        4.2007184408
 H        -8.9780372276       -1.9587048049        7.4108177366
 H        -7.8530221907       -2.4066723581        6.0652573448
 H        -7.1896531999       -1.7245891348        7.6384936077
 Na        0.8170900075        2.5500369358       -2.6845036038
