155

 C         1.2289871287      -10.5183999972       -0.2853175254
 C         1.2796071038      -10.7023344793        1.1897722187
 C         1.2825980186       -9.3679268113        1.9234329354
 C         0.5018576235       -8.2164357626        1.2022603683
 C         1.1246391094       -6.8215544610        1.0045946574
 C         0.5983041321       -9.6300258785        3.3975687275
 C         2.8007010506       -8.9739963860        2.2170581417
 O         1.5249259379      -11.7549616985        1.7492463603
 O        -0.6194185660       -8.3502085927        0.8189367082
 C         0.1114345013       -5.7048963510        1.0345414390
 C         0.9160002721       -4.3620521968        1.2453367125
 C         0.1979659002       -2.9188376153        0.9794858880
 C         1.2940463897       -1.8267654019        0.9725364327
 C         2.2907193228       -1.7881787274       -0.2597141958
 O         1.9493060534       -4.5114863380        1.8584020681
 O         1.4364052971       -0.9584868439        1.8250563780
 C        -0.8135106558       -2.7683756890       -0.2080873293
 C        -0.7306146612       -2.8248302877        2.2193455257
 C         3.2788972884       -0.6158182275       -0.0658074852
 C         2.7016765856        0.6777006882       -0.6184037845
 C         2.9118121313        2.0400139643        0.2182334913
 C         3.3185905629        3.1081572562       -0.7738314200
 C         4.7397608097        3.6487139871       -0.7218450499
 C         1.4425482878        2.1632852247        0.7500562128
 C         3.8816779536        1.8757516110        1.4042482679
 O         1.9236353294        0.6803308718       -1.5912594253
 O         2.4882190625        3.6307393297       -1.5232637138
 C         5.3646601659        3.4601009478       -2.1444135362
 C         5.4331128234        1.9688294111       -2.4294898274
 C         5.9015665703        1.3290201656       -3.7824532366
 C         4.8832254537        1.6451313684       -4.9488302144
 C         4.3333159221        0.6518717352       -5.8835034246
 O         5.0460407174        1.2088508557       -1.5906141816
 O         4.6708011248        2.8132511540       -5.1923017221
 C         7.2549138270        1.9959637566       -4.2802102179
 C         6.1342859100       -0.2407482761       -3.6936917895
 C         3.1719973700        1.2890962968       -6.6568081176
 C         2.0838313750        1.8929804677       -5.7621175739
 C         1.1367113033        3.0170251919       -6.3072304085
 C        -0.3357333224        3.0724141169       -5.6479697390
 C        -1.2327181704        4.2940423880       -5.9271228977
 C         1.7143519514        4.4004662340       -5.9169611881
 C         1.0713227548        2.9111673145       -7.8296688090
 O         1.8670916935        1.2531086680       -4.7669763158
 O        -0.7119839201        2.1536763832       -4.9302245608
 C        -2.2652367575        4.7287996967       -4.8701421982
 C        -1.5006138975        4.5962615975       -3.4475706181
 C        -2.3051427847        4.5103778087       -2.0665586495
 C        -2.2522599552        2.9632146860       -1.6362526335
 C        -3.5975080026        2.2741293635       -0.9399188750
 O        -0.2664575410        4.6645302730       -3.3716895786
 O        -1.3064240558        2.3021865954       -1.9173282436
 C        -1.5354178905        5.3579762721       -1.0287912493
 C        -3.7673933653        5.0562784044       -2.1024724906
 C        -3.7773986812        2.3930268958        0.6255450886
 C        -2.8120446638        1.6481426578        1.4674402998
 C        -2.9773512808        1.8650312971        3.0564966355
 C        -4.5339520297        1.5696340376        3.6161098753
 C        -5.0902449542        2.0412088027        5.0640080926
 C        -1.9360916450        0.8968564884        3.7264901022
 C        -2.5321961595        3.2841717292        3.3344797540
 O        -2.2226914543        0.7214474366        1.0425901559
 O        -5.2725701988        0.9931588865        2.8737515617
 C        -6.5291936533        1.4220243275        5.2820092025
 C        -6.6519287123        0.2154808181        6.2363306825
 C        -8.1500224090       -0.3852221428        6.4363869901
 C        -8.8230300311        0.6361644520        7.4296577502
 C       -10.0105342805        0.1114882593        8.3101354454
 O        -5.6881035336       -0.4073172422        6.6350470998
 O        -8.4136908320        1.7788226081        7.5215846044
 C        -9.0875956477       -0.4205621995        5.2127329977
 C        -8.0612761970       -1.9027514559        6.9339078426
 H         1.0379906634      -11.3449754177       -0.9272435783
 H         0.5354588772       -9.7734053375       -0.5919657517
 H         2.2039687162      -10.1993554028       -0.6115684284
 H         1.9598277721       -6.7461724502        1.7401261083
 H         1.6613665776       -6.6869180371        0.0152795278
 H        -0.4794136584       -9.9560083372        3.3394408165
 H         0.6493299667       -8.7046612761        3.9801516117
 H         1.2901044200      -10.4383087259        3.8132686104
 H         3.0253272214       -8.6929923241        1.2039622634
 H         2.8008612041       -8.2199505103        2.9888796021
 H         3.4439285332       -9.8190787652        2.5704377625
 H        -0.4310880038       -5.7760404043        0.0870919157
 H        -0.5504686317       -5.9022566417        1.8806264578
 H         2.6963489793       -2.8051941275       -0.2015207782
 H         1.6759858641       -1.6816158825       -1.1854233979
 H        -1.3564222355       -1.8372568783       -0.2038723342
 H        -1.6123469991       -3.5427240150       -0.0829151699
 H        -0.4218119482       -2.8520434293       -1.1881295419
 H        -1.3775940906       -3.6299850661        2.0026893924
 H        -0.2237072934       -2.9144663423        3.1961194287
 H        -1.3421550069       -1.8794451169        2.1417133286
 H         4.0926164307       -0.8402622159       -0.8454218619
 H         3.6095012071       -0.5087355966        1.0106555027
 H         4.7384032657        4.7333896327       -0.5391681436
 H         5.2360999548        3.1621128135        0.1469302331
 H         1.4600737244        3.0315013008        1.4282671840
 H         1.2128682238        1.2673616832        1.3744266679
 H         0.7404196489        2.3631833133       -0.0448437158
 H         3.5267586167        1.3447253848        2.2842193316
 H         4.7625385443        1.3054967259        1.1866401682
 H         4.2386757429        2.8376113368        1.8404909313
 H         4.6284230240        3.9193159942       -2.8337753382
 H         6.3536112458        3.9135037606       -2.2118850198
 H         5.0729089406        0.2939881898       -6.6474746711
 H         3.9886950181       -0.2924062635       -5.3408891903
 H         8.0795710899        1.3575475429       -4.4965135602
 H         7.4818072925        2.7795927320       -3.5609999624
 H         6.9749955762        2.5508969227       -5.1672930919
 H         6.5374776040       -0.4966143132       -4.7063853428
 H         7.0418110488       -0.4430612074       -3.0292625982
 H         5.2560691605       -0.7767721680       -3.4027926857
 H         2.4480361134        0.6255817099       -7.2070723215
 H         3.5994828202        2.0285035144       -7.3647761484
 H        -0.8051234131        5.2795074018       -6.2195363902
 H        -1.7874687849        4.1066971220       -6.8791963428
 H         2.6862645639        4.5218201991       -6.3766127714
 H         1.7383855219        4.5748277634       -4.8939822454
 H         1.1113116286        5.2739832780       -6.1125957633
 H         0.2001530243        3.2966350754       -8.3316185775
 H         1.9461396945        3.4423658317       -8.2334381843
 H         1.1207498452        1.8771806365       -8.1318665392
 H        -2.6552132915        5.7408444559       -5.0189666023
 H        -3.0152431514        3.8854047357       -4.8182250032
 H        -4.4331027385        2.8767396287       -1.3264278497
 H        -3.5391494743        1.2244520827       -1.1253862260
 H        -0.5413038838        4.9415444506       -1.0186696211
 H        -1.8940873765        5.2996086430        0.0222324469
 H        -1.3447388499        6.3411120513       -1.4748456670
 H        -4.0127048118        5.1818350716       -1.0757666262
 H        -3.8283746296        6.0077340860       -2.5777546752
 H        -4.4046156726        4.4003165756       -2.7401874264
 H        -4.6661615306        1.7915367234        0.6914652130
 H        -4.1270892613        3.3261669611        0.9953412406
 H        -4.3097677566        1.7220142002        5.8083233230
 H        -5.0676747702        3.1415991150        5.1590685131
 H        -2.0061222651       -0.1793100438        3.6747368777
 H        -1.7133075263        1.2007028566        4.6999831430
 H        -1.0244508126        1.0011363942        3.1938985383
 H        -2.6916662885        3.4499199114        4.3657718467
 H        -1.4741772112        3.4864561496        3.0289920331
 H        -3.0787908928        4.0184978550        2.7587885521
 H        -7.3282104395        2.1674453739        5.4951761150
 H        -6.7698781433        1.0517577379        4.3314246565
 H        -9.5673595151       -0.1142142615        9.2884987341
 H       -10.7995491239        0.9124703137        8.3945887680
 H       -10.5517474088       -0.7320399701        7.8857227640
 H        -9.3556180051        0.5598471058        4.8173292654
 H        -9.9407657547       -0.9342231219        5.7020769182
 H        -8.6723819641       -1.1004099931        4.4041021055
 H        -9.1111220116       -2.1671712886        7.1692173065
 H        -7.7137540360       -2.4652744248        6.1139793440
 H        -7.4869517182       -1.8874153449        7.8443217402
 Na        0.8040605932        2.2158456461       -2.7778802024
