155

 C        -0.6919697801      -10.8487468973        0.7206485208
 C         0.5779692617      -10.2687389328        1.4036511595
 C         0.2945119930       -9.3606114658        2.6230685358
 C        -0.1300321840       -8.0403083198        1.9386783530
 C         0.8666636770       -6.9240109382        2.0192097190
 C        -0.9090221376       -9.7726328010        3.5274126387
 C         1.4816171404       -9.2441022980        3.5996555294
 O         1.7063107915      -10.5171567929        1.0564023356
 O        -1.2835269383       -7.9154880371        1.4939733248
 C         0.1886797418       -5.5748094247        1.9115547314
 C         0.9081320136       -4.7264969884        0.8526896991
 C         0.1875943037       -3.6823884462       -0.1049884954
 C         1.1256565113       -2.4124261332        0.0218471318
 C         2.2750908616       -2.2489829604       -0.9662254652
 O         2.0962787856       -4.8871197813        0.6950839204
 O         0.8667255126       -1.6706424758        0.9103719791
 C         0.1612616245       -4.3225448836       -1.4478005218
 C        -1.2725685769       -3.3402574383        0.3921510245
 C         3.3244099713       -1.1939773456       -0.6068995797
 C         2.7965203103        0.3218699693       -0.9527892637
 C         3.1719062367        1.6430575597       -0.0811835325
 C         3.8721455912        2.5128187010       -1.1035154283
 C         5.4354239209        2.2951535493       -1.2408996279
 C         1.8303722237        2.2174517152        0.3860779990
 C         3.9492348450        1.3166836926        1.1278251192
 O         1.9392288142        0.3680713263       -1.8429940358
 O         3.3051925226        3.2225899002       -1.9531886266
 C         5.8674937934        2.5638223668       -2.6396708283
 C         5.5610466099        1.4458795543       -3.5809095135
 C         6.1278212804        1.2936701566       -5.0433857229
 C         5.0896837748        2.2006375886       -5.8709099291
 C         3.8247319065        1.5197694650       -6.2737867301
 O         4.7110512323        0.6468730218       -3.2345875864
 O         5.3578414401        3.2788525634       -6.3244028313
 C         7.5577199890        1.8410280426       -5.2142984107
 C         6.1223658430       -0.1966287425       -5.5618326928
 C         2.7689521353        2.5816974418       -6.8665032360
 C         1.5921836749        2.8281740022       -5.8904427252
 C         0.5337787507        3.8388293302       -6.3033374370
 C        -0.7533581040        3.4977088840       -5.6303931293
 C        -1.8836104814        4.5550028815       -5.5104478081
 C         1.1435949732        5.1868452148       -5.8186876578
 C         0.3594599465        3.8860172358       -7.8794649030
 O         1.6087239001        2.3051397930       -4.7676227543
 O        -0.8126234054        2.4100551611       -5.0994646546
 C        -2.6929980782        4.2505413602       -4.2704061770
 C        -1.8264954463        4.3543695143       -3.0382715223
 C        -2.5538719651        4.1067857298       -1.5761839432
 C        -2.1510457764        2.6385048650       -1.1805349172
 C        -3.1799181573        1.8299119678       -0.4210881545
 O        -0.6382806642        4.5850251119       -3.1277334143
 O        -1.1778622318        2.0715974033       -1.6817070814
 C        -2.0734039634        5.2112805487       -0.5785299162
 C        -4.1128831523        4.2141534036       -1.7320606494
 C        -3.4721749533        2.3957435130        0.9283459787
 C        -2.4393787991        2.1181425186        2.0491186127
 C        -2.9360741129        2.2840663538        3.5462361292
 C        -4.3694334012        1.7139853241        3.7338982675
 C        -4.6151218186        0.5474571053        4.7846840915
 C        -1.7682410746        1.7651590241        4.5306620250
 C        -3.0558313353        3.7925437502        3.7846381110
 O        -1.3752008248        1.5834569390        1.8961039416
 O        -5.2425209951        2.1678561263        3.0593884231
 C        -5.7951448165        0.8827295788        5.7422261759
 C        -5.9682493811       -0.0907709547        6.9514965958
 C        -7.4634919557       -0.3598483989        7.5611863351
 C        -7.8176227177        1.0835102815        8.0579324882
 C        -7.5823807347        1.3396296753        9.5631061996
 O        -5.0428566366       -0.7179717351        7.4007654197
 O        -8.1840444062        2.0358536914        7.3438438048
 C        -8.5438394579       -0.8946753732        6.5260531243
 C        -7.4321450577       -1.3942436125        8.7165943012
 H        -0.5886945867      -11.0667818275       -0.3779455005
 H        -0.9839674043      -11.8276489387        1.0970485868
 H        -1.5968280583      -10.2840070316        0.9026407964
 H         1.3258331023       -7.0340790712        2.9810303403
 H         1.5331379837       -6.9224602532        1.2293537870
 H        -1.7978856698       -9.3953822076        2.9985160957
 H        -0.8874417685       -9.3184542633        4.5576391465
 H        -0.7847035315      -10.8438155653        3.5990123198
 H         2.4131803962       -9.1266265180        2.9821249640
 H         1.3547845323       -8.5152255395        4.4767916943
 H         1.4987390134      -10.2074802809        4.1295277713
 H        -0.8591117899       -5.5688602537        1.7190735085
 H         0.3126470828       -4.9460833700        2.7979827990
 H         2.8503613636       -3.1668454532       -1.1981867120
 H         1.9433499982       -1.9348509432       -2.0136587174
 H        -0.3878108934       -3.7036923481       -2.1525573541
 H        -0.3390450571       -5.2469427525       -1.3509802347
 H         1.1646508342       -4.5098729030       -1.8762009603
 H        -2.1056372061       -4.0506182448        0.0614930207
 H        -1.2814502432       -3.2668099784        1.4778414524
 H        -1.5132775238       -2.3213330882        0.1154707680
 H         4.2247188049       -1.3663421955       -1.1856999942
 H         3.6212124584       -1.2796619751        0.4281557014
 H         6.0570664770        2.8764716348       -0.5690363782
 H         5.6308973392        1.2437000709       -1.1061174830
 H         1.7025484398        3.1513109700       -0.1343174233
 H         1.7519270257        2.4762453190        1.4920258360
 H         1.1010925232        1.4738676894        0.0984328314
 H         3.3844390716        0.7049881894        1.8336132602
 H         4.8171378109        0.6198109226        0.9251630734
 H         4.3078810293        2.1471414776        1.7137488424
 H         5.4709270827        3.5067349259       -3.0132312529
 H         6.9489161172        2.8580493745       -2.6334503844
 H         4.1055218348        0.7022577642       -6.9681091469
 H         3.3970737441        1.0545553072       -5.3460711606
 H         7.5906721840        2.2542600411       -6.2095584994
 H         8.3678824844        1.1786645639       -5.0267647097
 H         7.6191262409        2.7346098392       -4.6172119391
 H         6.4951104250       -0.1551095710       -6.6117917728
 H         6.6640763140       -0.9828440227       -5.0197829901
 H         5.0376202396       -0.5600311283       -5.5578606296
 H         2.3899674303        2.1555689999       -7.8316651223
 H         3.3481509746        3.4522483086       -7.1277666654
 H        -1.5263938823        5.5864985982       -5.4810383307
 H        -2.5361420744        4.3654634849       -6.3551609798
 H         0.9144342439        5.2307218980       -4.7709618160
 H         0.8745048551        6.0441570623       -6.3644881559
 H         2.2462788926        5.1397138865       -5.9285553146
 H        -0.0615199011        4.8295276606       -8.1323795706
 H         1.3250408561        3.7847657751       -8.3594507632
 H        -0.3846039674        3.1543226572       -8.1888531362
 H        -3.5578375705        4.9514156908       -4.3203433259
 H        -3.2339852644        3.2650910359       -4.1341268257
 H        -4.0875520729        1.8009007446       -1.0095855552
 H        -2.9577702521        0.7441166323       -0.3386116962
 H        -0.9724865592        5.3907813624       -0.4324003082
 H        -2.4428758425        4.9483383936        0.3815840204
 H        -2.4683977372        6.2014904664       -0.8272773676
 H        -4.7607304361        4.2708611520       -0.8174384816
 H        -4.3856328154        5.0146457331       -2.4700270216
 H        -4.4812940325        3.4179639200       -2.3145829116
 H        -4.3583276797        1.8025782982        1.2629839568
 H        -3.6868137253        3.5178371540        0.9229105878
 H        -4.9444971944       -0.2507950378        4.1118566393
 H        -3.7685028180        0.2352237664        5.3628902903
 H        -1.5749502190        0.7485371075        4.4762430098
 H        -2.0732340952        2.1212627914        5.4931887956
 H        -0.8476949719        2.2027039938        4.2247055891
 H        -3.3839387764        3.9678949946        4.8050982813
 H        -2.0964624255        4.1559195094        3.5412493671
 H        -3.7077068442        4.2971376279        3.0820828973
 H        -5.7896477235        1.9246572496        6.0728616907
 H        -6.6836493077        0.8367504866        5.1387692989
 H        -6.5437937390        1.0296273231        9.8388487072
 H        -7.6995571880        2.3709760272        9.8026555106
 H        -8.3412243173        0.7897863158       10.1828785120
 H        -8.5248178147       -0.3575938287        5.5612261206
 H        -9.4812753095       -0.5238730053        6.9374877907
 H        -8.5226008884       -1.9496440267        6.4173578958
 H        -8.4126082258       -1.5247320591        9.1015147497
 H        -7.1389699625       -2.3937813782        8.3451208216
 H        -6.7834549348       -1.1061103169        9.5508881186
 Na        0.9319134052        2.7592823538       -2.5726392924
