155

 C        -0.3324438157      -11.6274295347        1.9731485442
 C        -0.0925035662      -10.2067249984        1.7526885285
 C        -0.3631325120       -9.2041411876        3.0638922000
 C        -0.9202127470       -7.7468430417        2.4814660637
 C         0.0672547235       -7.1071139231        1.4541866852
 C        -1.4469925402       -9.8200251010        4.0081374855
 C         0.9200675248       -8.9655840160        3.9052988270
 O         0.3212577973       -9.9009084516        0.6525105214
 O        -1.9172681177       -7.1203204596        2.9052433214
 C        -0.5094958682       -5.8458494468        0.7788580678
 C         0.4574978256       -5.0400354897       -0.0302945239
 C        -0.1894254457       -3.7813258520       -0.9713193239
 C         0.8999442735       -2.6556885776       -0.9016348694
 C         1.9103605219       -2.3994358553       -2.0895782718
 O         1.6625781874       -5.2930810262       -0.1186804387
 O         1.2173747292       -2.0767347089        0.1313157145
 C        -0.2818283566       -4.3930286875       -2.3484032002
 C        -1.5788071338       -3.2761449042       -0.3549197379
 C         3.0221198123       -1.5336217228       -1.6128602348
 C         2.7698107272       -0.0585300973       -1.8475623574
 C         3.4822343709        0.9143856564       -0.8205157901
 C         3.9051793802        2.2102361639       -1.7015162948
 C         5.4331981102        2.5382102832       -1.9534231960
 C         2.3534917285        1.4264654880        0.1897295529
 C         4.6739366587        0.2153376979       -0.1257588288
 O         1.9725557664        0.3287436066       -2.6494129562
 O         3.0270209868        2.8762468991       -2.2068539484
 C         5.8008711319        2.8694439438       -3.4202842865
 C         5.8510211171        1.5785028537       -4.2950061154
 C         6.1312301007        1.6829762207       -5.8309310379
 C         4.7546926076        2.2965781409       -6.2482752616
 C         3.7226374450        1.3951854718       -6.9658530003
 O         5.6848567757        0.5055618339       -3.7585007710
 O         4.5520006619        3.4568019349       -6.0964828294
 C         7.3124085749        2.7622509147       -6.3321723100
 C         6.3698041694        0.2977847611       -6.4732096851
 C         2.4226312347        2.1787439364       -7.4117727984
 C         1.7065515169        2.6818655497       -6.1262306175
 C         0.7934297162        3.9086042465       -5.9724017581
 C        -0.5424873946        3.5046677957       -5.1624479217
 C        -1.5371730120        4.6718505263       -4.9014937310
 C         1.5740007400        5.0828580410       -5.3100004917
 C         0.2824256628        4.3254719335       -7.3727669786
 O         1.8326476756        2.0561713111       -5.1182508834
 O        -0.7847131115        2.4243974449       -4.7345384912
 C        -2.4598550555        4.4889378079       -3.7398116826
 C        -1.6616865692        4.3760250152       -2.4309609856
 C        -2.4542310612        4.1272965113       -1.0857776207
 C        -2.2258416212        2.5930463032       -0.6439225710
 C        -3.4079629398        1.9463350278       -0.0167266703
 O        -0.4340998019        4.2838277246       -2.5692791198
 O        -1.2777522878        2.0263406132       -1.1364263485
 C        -1.8541466746        4.9858395109        0.0168441503
 C        -4.0320684094        4.5430143974       -1.3831859911
 C        -3.9418429855        2.4334412889        1.3291216516
 C        -2.9339224814        2.2513762398        2.5438314273
 C        -3.4014270039        2.9030017074        3.9050335291
 C        -4.4463511171        1.9292470160        4.5247957735
 C        -4.0913563066        0.9698636972        5.6823554691
 C        -2.2581065233        2.9319042503        4.9485003312
 C        -3.9869488121        4.3609902560        3.6953060468
 O        -1.8872042806        1.6646564928        2.4513044633
 O        -5.5113888440        1.7351939438        3.9950284089
 C        -5.4080183719        0.1177465820        6.0461103217
 C        -5.3214112577       -0.5620723736        7.4213124561
 C        -6.4672351201       -0.1504476161        8.4662350362
 C        -6.5482126938        1.4248182496        8.6194072944
 C        -5.2953025261        2.1582922157        8.9808231210
 O        -4.4972278230       -1.4071499295        7.6960474690
 O        -7.5399901703        2.0824853831        8.6464475539
 C        -7.8108704947       -0.7151214500        7.9289204864
 C        -6.0716346608       -0.8892818160        9.7937396225
 H         0.4329483644      -12.2067396119        1.6608846925
 H        -0.4402358047      -11.7789312171        3.0772133765
 H        -1.3177644528      -11.9023332945        1.5064529919
 H         1.0393139379       -6.8938764997        1.8717079400
 H         0.2733602066       -7.9027021550        0.7427167009
 H        -2.3125377114      -10.0495363679        3.3688455720
 H        -1.7065114868       -9.0942298444        4.7627529074
 H        -1.0873371692      -10.6781689160        4.5172712597
 H         1.7918159926       -8.6553527374        3.3612116989
 H         0.7915835242       -8.2746273421        4.7347705175
 H         1.2836991598       -9.9051880017        4.3484382536
 H        -1.3340911308       -5.9813889291        0.0853945630
 H        -0.9467016900       -5.0579723924        1.4833061705
 H         2.4752290917       -3.2844083415       -2.4839373841
 H         1.3025855018       -1.8477241917       -2.8970213769
 H        -0.5609543685       -3.6032773561       -3.0273658430
 H        -1.0317215890       -5.1698799982       -2.3265507932
 H         0.7329824018       -4.8117347625       -2.5872536723
 H        -2.4642043653       -3.9434003858       -0.3261552159
 H        -1.3894892800       -2.8364134205        0.5911285706
 H        -1.8128588203       -2.3451421715       -0.8885814077
 H         4.0582261688       -1.7797218090       -2.0643298728
 H         3.2341940090       -1.6948592103       -0.5585378571
 H         5.7626096607        3.3176596417       -1.3074564838
 H         5.9689793551        1.6225902924       -1.6892231597
 H         1.4570797953        1.4929030604       -0.4227565614
 H         2.4528630539        2.4973861401        0.6969490824
 H         2.2130812648        0.6662915999        0.9599267241
 H         4.3018989039       -0.6145560699        0.4613571714
 H         5.2422500387       -0.1528465918       -0.9644389878
 H         5.1919044185        0.9128295216        0.4716358752
 H         5.0119579941        3.5911417878       -3.7790092514
 H         6.7450310428        3.3444558303       -3.2396845997
 H         4.4006068831        1.0768882907       -7.8152232125
 H         3.4276055186        0.4727053337       -6.3648320867
 H         6.7820373357        3.4045616667       -7.0813080079
 H         8.0415338789        2.1890293393       -6.9062182369
 H         7.8154779612        3.4794147721       -5.6486794976
 H         6.9021643472        0.4681345027       -7.3474156093
 H         6.9262047500       -0.3949798863       -5.9260508361
 H         5.5006621258       -0.2779594966       -6.6902516738
 H         1.7448350096        1.6145650688       -8.0826668101
 H         2.8218473596        2.9603765095       -8.0876434778
 H        -0.9750402885        5.5838865759       -4.7808021011
 H        -1.9511823159        4.7998533440       -5.8765122906
 H         2.2081925698        4.8501239949       -4.4955585599
 H         0.9225433916        5.5999256465       -4.7799836356
 H         2.2126007318        5.5978214006       -6.0162491308
 H        -0.5835977835        4.9110110644       -7.3166650709
 H         0.9809712518        4.8343404670       -8.0944744777
 H        -0.1129351184        3.3960458276       -7.8486246853
 H        -3.1033163614        5.3694832465       -3.8161716756
 H        -3.0565516015        3.5043186404       -3.7894936411
 H        -4.2546068198        2.0755954478       -0.7031698927
 H        -3.1355445348        0.9250071599       -0.0248967458
 H        -0.8298409938        4.6558474994        0.2467680559
 H        -2.4763368635        4.8140144827        0.8602282826
 H        -1.8242775387        6.0780780478       -0.1478320997
 H        -4.5905902680        4.2292758441       -0.4664782087
 H        -4.1101924475        5.6221092182       -1.6576723477
 H        -4.3708486150        4.0787955025       -2.2363706215
 H        -4.8066603476        1.7177771428        1.5706268801
 H        -4.5053671279        3.3520394827        1.4518303669
 H        -3.1632016805        0.3930775897        5.5871381188
 H        -4.0153189800        1.6264351274        6.5883727488
 H        -1.6398231269        2.0681565509        4.9986138411
 H        -2.7254670361        3.4598489206        5.8063650103
 H        -1.5056068014        3.6007462375        4.5257772766
 H        -4.6195967316        4.6726251473        4.4907291952
 H        -3.1022458136        5.0265151162        3.5202913055
 H        -4.5208659638        4.5086697460        2.7465228208
 H        -6.2755076422        0.8295404385        6.0271179022
 H        -5.5815245793       -0.6035282273        5.2807566538
 H        -4.5841281689        2.3095956182        8.1953634930
 H        -5.6416780064        3.1048643700        9.2004869634
 H        -4.8301302890        1.6090409405        9.7642944811
 H        -8.0198953772       -1.7747444417        8.1091118844
 H        -7.7766984999       -0.5925272683        6.8163772863
 H        -8.6533442910       -0.1025192207        8.2181204025
 H        -6.7015027577       -0.7633503004       10.6459677307
 H        -6.0770213449       -1.9929688626        9.6946407926
 H        -5.0376994839       -0.7310729486       10.1993438416
 Na        0.8994129587        2.3423955402       -2.8767423304
