155

 C         3.4367795301       -0.8698648860       11.7099309288
 C         3.3110272270        0.1089778540       10.5862821208
 C         4.5671301237        0.5625603204        9.6829913936
 C         4.4808386798       -0.1300858371        8.2612381830
 C         5.0323959499        0.5453076519        6.9239647613
 C         4.5185868038        2.1800853383        9.4067171315
 C         5.9406271435        0.3022865283       10.3633232073
 O         2.2143932007        0.6044454897       10.2914148652
 O         4.1155581431       -1.2733306908        8.1544644558
 C         4.0281462601        0.1275492264        5.7624579843
 C         4.6364537505        0.2318716125        4.3937230204
 C         3.5881837101       -0.5108255780        3.3070952609
 C         2.0866675668       -0.4646450532        3.6931364325
 C         1.3321985810       -1.7635822463        4.1372014930
 O         5.6763316534        0.6953748685        4.0259463133
 O         1.5434932424        0.5817141770        3.8678517249
 C         3.6944501609        0.1434896342        1.8538328471
 C         4.2327290805       -1.9455783345        3.1570326977
 C        -0.1433232379       -1.5075492529        4.5162183564
 C        -1.0168530421       -1.9479228956        3.2442633136
 C        -2.1512343048       -3.0778344782        3.2241959482
 C        -3.3895608544       -2.4244739592        2.5988030851
 C        -4.6037368679       -1.9342351267        3.4349808152
 C        -1.5711298442       -4.1357933070        2.3309185435
 C        -2.3738018341       -3.6720669130        4.5806978487
 O        -0.6345807846       -1.5572579966        2.1532033816
 O        -3.3646172643       -2.3041684363        1.3728352824
 C        -4.7497989753       -0.4396624697        3.3794015321
 C        -3.7846646241        0.3419716101        4.2588651691
 C        -3.9173193860        1.8754440412        4.2417908598
 C        -2.9214939001        2.6557104731        3.3569482011
 C        -1.3574467385        2.5657812332        3.6747540365
 O        -2.9691044735       -0.2335529631        4.9454710278
 O        -3.3067580974        3.1926722877        2.3744135947
 C        -5.3866288384        2.2408704194        3.9223949488
 C        -3.5282442263        2.3239353938        5.6334364037
 C        -0.5497882387        3.0017112147        2.3933781872
 C        -1.1461110261        2.2543349633        1.1940403623
 C        -0.9060719195        2.9571548835       -0.2640037120
 C        -0.8084968029        1.8220831248       -1.4914921168
 C        -1.5979043305        2.0991817580       -2.7286252719
 C        -2.0796261289        3.9548910873       -0.4335877586
 C         0.4734276436        3.5889269768       -0.3856594442
 O        -1.3785676059        1.0653903622        1.3383413163
 O         0.1327085734        1.0820406255       -1.3196844027
 C        -1.9138003798        0.7952671329       -3.5805574332
 C        -3.0654234345       -0.2098390407       -3.1127619341
 C        -3.9672103986       -0.8212435869       -4.1867954398
 C        -3.1189213329       -1.8692177805       -5.0757264871
 C        -3.5257957301       -3.2338963608       -5.4505027118
 O        -3.3061923047       -0.4400604932       -1.9007210851
 O        -2.0061200853       -1.4635066084       -5.3213223619
 C        -5.1494386193       -1.4568797575       -3.4337416831
 C        -4.5651670485        0.1289484544       -5.2986577757
 C        -3.7625053781       -3.2314516337       -7.0596563683
 C        -2.5158947825       -2.8965692686       -7.8888414329
 C        -2.5339879482       -1.7980746654       -9.0258318414
 C        -1.5828515620       -0.6070226144       -8.4807127253
 C        -0.1435885503       -0.7668753433       -8.8417371439
 C        -2.1313846105       -2.4578598004      -10.3488204041
 C        -3.9314788392       -1.3171750941       -9.1559471845
 O        -1.6299481864       -3.7542617929       -7.7987104697
 O        -2.0618180416        0.2930362214       -7.8334896977
 C         0.8873956873        0.2637814107       -8.1663313188
 C         2.0057098464        0.5523878999       -9.1249117013
 C         3.1878765734        1.2047671374       -8.4639061426
 C         2.7530393887        2.5834240281       -7.7610608031
 C         1.9732814052        3.6333671151       -8.4886790806
 O         1.8949345231        0.3650547403      -10.3201893956
 O         3.2765149564        2.7894147306       -6.6524131862
 C         3.7643507284        0.2637480546       -7.2917149506
 C         4.4553803926        1.5189870644       -9.3126032331
 H         4.1016105603       -1.6998610078       11.5850768287
 H         3.9070700931       -0.3786933590       12.6673285632
 H         2.4636076860       -1.2026614483       12.0640159114
 H         5.1445704974        1.5507353978        6.8871568212
 H         5.9800832993        0.0574208369        6.8164058278
 H         4.3497987362        2.7177932651       10.3391504208
 H         3.7825644727        2.4722842141        8.6261380319
 H         5.5260406108        2.3146433645        9.0800947792
 H         5.9400848633       -0.7600333117       10.5758480754
 H         6.8206275167        0.5479175454        9.7244474178
 H         6.2391042541        0.8054208914       11.2800190508
 H         3.7073489864       -0.8792350107        6.0749669230
 H         3.0401116318        0.6834662150        5.8934527189
 H         1.2632471721       -2.5635286691        3.4321646645
 H         1.9163081833       -2.1706112937        5.0063113181
 H         3.1747564567        1.1190798347        1.9159060204
 H         3.1071765963       -0.5415062836        1.1770195717
 H         4.6939087070        0.3398745869        1.5254609687
 H         4.2241073406       -2.7051064329        4.0220216719
 H         4.1322798200       -2.4551092627        2.1548096070
 H         5.3165628632       -1.6651646001        2.9922043188
 H        -0.3395641523       -0.4584675147        4.7029741269
 H        -0.4619981910       -2.0506376248        5.3424032476
 H        -5.5046483386       -2.4321320722        3.0754430294
 H        -4.5012482192       -2.1681451217        4.4400397123
 H        -1.3608748992       -3.7885433138        1.3673123619
 H        -2.3041771471       -4.9801673069        2.2671541642
 H        -0.8119029215       -4.6891019214        2.8103627478
 H        -1.5106969336       -4.0157864355        5.0816427812
 H        -2.8506370993       -3.0424545876        5.3060653075
 H        -2.8586994200       -4.5748770678        4.3915302671
 H        -4.5505657277       -0.1362586624        2.3521487805
 H        -5.7810215628       -0.1815249298        3.6109474269
 H        -1.2104503540        3.1029631378        4.5806011594
 H        -0.9492072629        1.5130312024        3.8197998528
 H        -5.9776356019        1.5306608752        4.3830485443
 H        -5.6200989257        2.0324725098        2.8838207477
 H        -5.4959542556        3.3043625421        4.2635847622
 H        -3.3502268803        3.4464812868        5.6978441222
 H        -4.2704795859        1.9298652639        6.3395554758
 H        -2.5642121024        1.9314404042        5.8839599586
 H         0.4637062608        2.6278655163        2.3996773051
 H        -0.4436517875        4.0649559012        2.2209451747
 H        -2.5261481323        2.5655067571       -2.5064907499
 H        -0.8835465202        2.7477731108       -3.2915575061
 H        -1.9512411455        4.8005625497        0.2651741807
 H        -3.0549162922        3.4997530174       -0.3241860715
 H        -1.9790829037        4.3662801019       -1.4356892343
 H         0.4192942766        4.6580785901       -0.0398531565
 H         1.2218450370        3.0685474993        0.2626250011
 H         0.8329017212        3.5420432166       -1.3803032031
 H        -2.0732748458        1.2119259243       -4.5852458549
 H        -0.9255916444        0.3638076802       -3.8163190565
 H        -2.5939796923       -3.7943489144       -5.3906726098
 H        -4.2816772985       -3.7995453540       -4.9358273666
 H        -5.7808132867       -1.9414253289       -4.1421415816
 H        -5.7858991436       -0.6425582519       -3.0307521772
 H        -4.8444470685       -2.1274320764       -2.6978474812
 H        -5.0145335393        0.9924529725       -4.8726785661
 H        -3.9607341500        0.5667074757       -6.0833065176
 H        -5.3168235875       -0.4639202419       -5.8810885217
 H        -4.6543150742       -2.5924670169       -7.2022449595
 H        -3.9752022575       -4.2837146456       -7.3532405680
 H         0.2185251483       -1.8366658133       -8.7832195307
 H        -0.1866757252       -0.5070671888       -9.8953930756
 H        -2.0068818153       -1.9096512490      -11.2506642623
 H        -2.8868728746       -3.1763197783      -10.6967109340
 H        -1.2165689095       -3.0160224022      -10.2836742524
 H        -4.6682029067       -2.0677838841       -9.3315785661
 H        -4.3250245753       -0.7806764271       -8.3133282788
 H        -3.9919716407       -0.5700834542       -9.9456401893
 H         0.3898906870        1.1791054479       -7.9262795534
 H         1.2599411602       -0.1066078974       -7.1915614393
 H         0.9284147887        3.3102934632       -8.6125357375
 H         1.8878915428        4.5040881941       -7.8553277192
 H         2.2741242132        3.9849616871       -9.4631470258
 H         3.9397642886       -0.7873585591       -7.6230543717
 H         3.0459014150        0.1769558807       -6.4647857144
 H         4.7363004592        0.6025095116       -6.9120856888
 H         4.9965366124        0.5976465722       -9.4391113442
 H         4.2704194615        2.0286878255      -10.2513801921
 H         5.0538755433        2.1469040013       -8.7154896590
 Na       -1.9661773253       -0.6762540912        0.1547816031
