155

 C        -1.5293953058      -11.2273106320        3.5792872366
 C        -0.9215958817      -10.2404599092        2.5956796405
 C        -0.4076392559       -8.7288123335        3.0587485222
 C        -1.0510672704       -7.7795104822        2.0043665922
 C        -0.1344387258       -6.8192250683        1.1614435149
 C        -1.0149976400       -8.5525094896        4.4552891475
 C         1.1741007388       -8.8310396047        3.0622797522
 O        -0.7852802690      -10.5364404306        1.4601820335
 O        -2.2572055569       -7.7916471508        1.9376514659
 C        -0.8414963125       -5.6038102447        0.5261432451
 C        -0.2420856288       -5.1119220945       -0.8776680413
 C        -0.6514454712       -3.7471877504       -1.5958964682
 C         0.7066617278       -2.8764606326       -1.3247532765
 C         1.7647928888       -2.8621535191       -2.5295646903
 O         0.3752291616       -5.9629562081       -1.5588819376
 O         0.9315843492       -2.3178773792       -0.2884479163
 C        -0.9639268258       -3.7876308589       -3.1260190637
 C        -1.8072723316       -3.0733646975       -0.9118402335
 C         2.9907745378       -1.9747896868       -2.1657033591
 C         2.4773213032       -0.4422421099       -1.9059542700
 C         3.2295515748        0.4303699164       -0.9481393779
 C         3.7583906936        1.7150724621       -1.7933167224
 C         5.1808100338        1.8744009090       -2.2585087368
 C         2.2194886786        0.9350696605        0.1464529133
 C         4.4266907168       -0.2540075948       -0.2505767746
 O         1.4240971793       -0.0370758402       -2.3908841052
 O         2.9309106212        2.6139193268       -1.9486684470
 C         5.4712308263        2.6534257915       -3.5140005944
 C         5.3347312476        1.7492450197       -4.7903443271
 C         5.6583623858        2.1896225110       -6.2621925113
 C         4.2544683576        2.5919239917       -6.9149263538
 C         3.4180210935        1.4319169040       -7.2728669078
 O         5.1697452366        0.5390624224       -4.6616010757
 O         3.9261556931        3.7553399689       -6.9802049138
 C         6.6654878631        3.3895253971       -6.2846893276
 C         6.2088597875        0.9143957290       -7.0172711891
 C         1.8603425956        1.9326051115       -7.4290800882
 C         1.3576902878        2.3767873178       -6.0014660762
 C         0.8047378368        3.8274326666       -5.7220610790
 C        -0.5979610331        3.7191374015       -4.9268680755
 C        -1.4009464456        4.9515274437       -4.7687408430
 C         1.9671502568        4.4984396760       -4.9075802973
 C         0.5098096294        4.6353032008       -7.0557248279
 O         1.5005876996        1.6855405413       -4.9943132540
 O        -0.9928372725        2.6507690815       -4.4688932611
 C        -2.2581814756        4.8896596897       -3.4921519515
 C        -1.3985213462        4.4279883912       -2.3158542875
 C        -2.0289734609        4.0616887167       -0.8580751556
 C        -2.0959955808        2.4676085965       -0.7598181779
 C        -3.3849842290        1.7026089432       -0.3288611667
 O        -0.1843922839        4.2984038959       -2.4013947825
 O        -1.0989270647        1.8298083949       -1.0098980353
 C        -0.9701413133        4.7594766048        0.0912465674
 C        -3.4996144112        4.7010906239       -0.6635946537
 C        -3.9537457146        1.8563970550        1.0970865066
 C        -2.8910182957        2.3817345595        2.2047590610
 C        -3.2188476316        2.7447924253        3.6517208796
 C        -3.9237313649        1.6221189079        4.4616058592
 C        -3.8653042472        1.8105939488        5.9746790047
 C        -1.8397222230        3.1035280431        4.3602856899
 C        -4.1916657916        3.9529950330        3.6458051808
 O        -1.7274480439        2.5745952248        1.8098349648
 O        -4.4186721270        0.6102002722        3.9205564788
 C        -4.8525527398        0.8947775691        6.6816391067
 C        -4.3344698169        0.4002798139        8.0372447953
 C        -5.4068548014       -0.0208258532        9.1415576189
 C        -5.5279358919        1.3738709756       10.0004897512
 C        -5.3492942360        1.2444998851       11.5618784328
 O        -3.1526383418        0.0842761568        8.1266950287
 O        -5.6264175225        2.4748650735        9.4823324292
 C        -6.8266329540       -0.4027440095        8.5677043437
 C        -4.6846503052       -1.0955075546        9.9547298445
 H        -1.8047285754      -12.0722899991        2.9985293068
 H        -0.7906133934      -11.3781912678        4.3681095406
 H        -2.4456962565      -10.8008348690        3.9596792926
 H         0.6625798160       -6.3970806733        1.8063883814
 H         0.2729527040       -7.4903370546        0.3538882568
 H        -2.1251931014       -8.6719743045        4.3863793816
 H        -0.7352705996       -7.6359629599        4.9635661149
 H        -0.7284253482       -9.3380981379        5.1702686471
 H         1.6029652331       -9.2425898662        2.1215969629
 H         1.6370515882       -7.8647655124        3.1585445348
 H         1.6061189941       -9.4499981799        3.8322025714
 H        -1.9068168495       -5.8840998984        0.1685737579
 H        -0.9001575923       -4.8718582837        1.3434060064
 H         1.9717640605       -3.9371143079       -2.7993241225
 H         1.0827261858       -2.4049000453       -3.2830340537
 H        -0.5651091497       -2.9241334157       -3.6280905574
 H        -2.0634589929       -3.7350404440       -3.2754561182
 H        -0.5043732270       -4.6947401356       -3.5966996224
 H        -2.5484277021       -3.8195375187       -0.6337589457
 H        -1.5706831130       -2.5816389102        0.0044942554
 H        -2.1522369825       -2.2816028157       -1.6140550631
 H         3.8065616067       -1.8585440445       -3.0082394823
 H         3.4808753818       -2.4040521244       -1.2426212252
 H         5.7148541912        2.4029648051       -1.4524184906
 H         5.7859831114        0.9822214173       -2.3065216376
 H         1.5289958479        1.6237722297       -0.2350597199
 H         2.7687117798        1.1950808420        1.1218185701
 H         1.5904327023        0.1597524145        0.4709238723
 H         4.0323241936       -0.9987065965        0.4731459271
 H         5.0719298153       -0.7197920940       -1.0200591109
 H         4.9735619150        0.5288200956        0.2879126707
 H         4.9106717115        3.6016438560       -3.6278707164
 H         6.5388472344        3.0271217860       -3.5273202777
 H         3.9252649339        0.9728367523       -8.1907406100
 H         3.3842142070        0.6908342255       -6.4663678644
 H         6.2812676813        4.1848713116       -5.6574280204
 H         6.6770810393        3.6874149900       -7.3009302682
 H         7.6786491721        3.1500599670       -5.9434665852
 H         7.2534127248        0.6851946682       -6.7485339096
 H         5.6107699907       -0.0126777628       -6.8676502534
 H         6.1427488541        1.3168172720       -8.0718694946
 H         1.3151286137        1.0948768419       -7.8464073541
 H         1.8028664279        2.8023257762       -8.0987704302
 H        -0.6715455824        5.7437103530       -4.5857029549
 H        -2.0855763143        5.2155044080       -5.5837352427
 H         2.2829726148        4.0344516015       -3.9627828146
 H         1.7434191238        5.5207539231       -4.7866003722
 H         2.8430719602        4.4172396077       -5.6075951969
 H        -0.0476952116        5.4506652610       -6.7541174606
 H         1.4330725917        5.0862052832       -7.4988426170
 H        -0.0485120598        4.0860227557       -7.8526886659
 H        -2.6741930680        5.9623406338       -3.3285308508
 H        -3.1682783636        4.2977035745       -3.4383375695
 H        -4.1533050872        1.8198658156       -1.0710385358
 H        -2.9842234864        0.7020918918       -0.3796982874
 H        -0.0066115050        4.2508307538        0.0070676164
 H        -1.3642926050        4.7929817065        1.0841924554
 H        -0.8484730655        5.8030705296       -0.2444327876
 H        -3.8592719567        4.3000711492        0.3030416212
 H        -3.4981874217        5.8211956394       -0.6589419855
 H        -4.1230353889        4.3906649746       -1.4490329387
 H        -4.2633107644        0.8289113942        1.3507537634
 H        -4.7257059129        2.6631122580        1.0577511011
 H        -2.8262511136        1.4715364511        6.3122138465
 H        -3.8418791616        2.8937402786        6.2928886057
 H        -1.0844101805        2.3548880935        4.6704035255
 H        -2.0383523851        3.7352838022        5.2547571729
 H        -1.2525221707        3.7353144520        3.6822153396
 H        -4.6368634896        4.1477375069        4.5790221176
 H        -3.7318928850        4.9573664923        3.3725731856
 H        -5.0357292894        3.8730774140        2.9515531787
 H        -5.8331624773        1.3522419674        6.7905719866
 H        -5.0493496973        0.0542807067        6.0009677906
 H        -4.5103681886        1.9502688259       11.8371851548
 H        -6.2947260383        1.5366530478       12.0241620100
 H        -5.1327538515        0.2180756846       11.9463114607
 H        -7.3410031377       -0.7965442341        9.4371455646
 H        -6.7540703775       -1.1629812422        7.7824897816
 H        -7.2438651982        0.5226065475        8.1647883271
 H        -5.2075456045       -1.5710706604       10.7563294625
 H        -4.3743683804       -1.8729609103        9.2736435204
 H        -3.6831207544       -0.7753383559       10.3462310944
 Na        0.6219892502        2.0268518963       -2.6226220461
