155

 C        -1.8015659696      -11.0778667758        3.6680557250
 C        -1.0043902850      -10.2637578918        2.5878746670
 C        -0.4871720351       -8.7855827631        3.0670068066
 C        -1.0418754538       -7.7098195216        1.9167112690
 C        -0.1335121946       -6.9577372777        0.9373929348
 C        -0.8588081904       -8.2524599796        4.4435221311
 C         1.0806545191       -8.8191004342        2.9872879553
 O        -0.7166172690      -10.6355507154        1.4613449357
 O        -2.2471990069       -7.4414215922        2.0177962125
 C        -0.9112280042       -5.7354366298        0.3545183108
 C        -0.4891596077       -5.3369111713       -1.0902409289
 C        -0.7313462282       -3.8735786659       -1.5545308466
 C         0.6863771977       -3.0242349261       -1.3451735924
 C         1.6750900164       -2.8184084952       -2.5276141750
 O         0.1197204774       -6.0672655263       -1.8490629082
 O         0.8589773293       -2.3642012371       -0.3246433527
 C        -0.9993400381       -4.0984727711       -3.1288147954
 C        -1.8964271186       -2.9147354009       -0.7782714066
 C         2.9190214041       -1.9776855039       -2.2175365660
 C         2.4711648873       -0.5690496158       -1.9473337766
 C         3.2878306843        0.4831398877       -0.8253964233
 C         3.7663137823        1.6420281962       -1.7582523941
 C         5.2554564526        1.7360034549       -2.2188901916
 C         2.2211258047        1.0859193954        0.1192758526
 C         4.3575568886       -0.2101922927        0.0055521786
 O         1.4122502177       -0.1151932857       -2.3347631121
 O         2.9968109983        2.4608472175       -2.2488677078
 C         5.2521626223        2.5296123633       -3.6180791931
 C         5.1235830070        1.5696562156       -4.8049512213
 C         5.6494595398        2.1344124729       -6.1979804356
 C         4.2475589148        2.5527932840       -6.8983940557
 C         3.2298927569        1.4264526422       -7.2291371724
 O         4.6523416960        0.4750951855       -4.6904597235
 O         3.9901625892        3.6909092991       -7.1834411399
 C         6.5001140628        3.4167961464       -6.1633891384
 C         6.4150738696        1.1401579751       -7.1867533005
 C         1.7838945209        1.8538464846       -7.2992359563
 C         1.3362266762        2.4094338343       -5.9086228161
 C         0.7579206122        3.9843443624       -5.7314434396
 C        -0.6036026762        3.7461017998       -5.0100620161
 C        -1.4842490265        4.9392313567       -4.7563941616
 C         1.7672034278        4.9085868404       -4.9150067143
 C         0.4578561019        4.5880106249       -7.1179106235
 O         1.5200574096        1.8092709647       -4.8918559718
 O        -0.8916213253        2.6876544018       -4.4885041682
 C        -2.3397435787        4.7860476653       -3.4338541089
 C        -1.2793711395        4.4168471452       -2.2415798142
 C        -1.9442755423        4.1292809938       -0.8033271596
 C        -2.0851609092        2.5495372793       -0.8100860965
 C        -3.3864483277        1.7574438854       -0.2136971429
 O        -0.0716392737        4.3925976719       -2.4603848111
 O        -1.2752825625        1.7946183976       -1.3835251721
 C        -0.9828658395        4.5501664542        0.3000505733
 C        -3.2893230808        4.8667681683       -0.6911798740
 C        -3.7942082978        1.7206296057        1.3455383283
 C        -2.6726222640        2.3491524413        2.1856601973
 C        -3.0982393729        2.8314919597        3.6651292131
 C        -3.7417871742        1.6041704140        4.5227382611
 C        -3.6856632950        1.7471632960        6.0346429808
 C        -1.8733489700        3.4376435845        4.3612193952
 C        -4.2140722303        3.8729130718        3.5050274268
 O        -1.5679815360        2.4681183759        1.7578887753
 O        -4.2289581987        0.6506947120        3.9975608537
 C        -4.8219995756        1.2293524025        6.8975946988
 C        -4.1736015368        0.4229931275        8.0803553349
 C        -5.1247916567       -0.0836964090        9.2260076766
 C        -5.3002040590        1.2811957510       10.0943843433
 C        -5.5520475514        1.2095630342       11.5813048096
 O        -2.9651669116        0.3231065523        8.1760538690
 O        -5.4803647041        2.3365680681        9.5556093304
 C        -6.6288098915       -0.3399175492        8.8131216547
 C        -4.5437845898       -1.3192680769        9.9987817731
 H        -1.8587974998      -12.1137497484        3.3499192185
 H        -1.2355587682      -10.9595263705        4.6430016247
 H        -2.8547177188      -10.7561931940        3.6321911800
 H         0.6888622061       -6.6192228359        1.5598841781
 H         0.1979267404       -7.6682719286        0.2028778478
 H        -1.8700470152       -8.3680688840        4.8330707903
 H        -0.5929454218       -7.1557567404        4.4805029870
 H        -0.1908401479       -8.6786391269        5.2258205330
 H         1.4866154241       -8.9290513692        2.0189445940
 H         1.5571032791       -7.9733173522        3.4736451721
 H         1.5195910698       -9.5467912089        3.7168606725
 H        -1.9104957513       -5.9987689156        0.3915056266
 H        -0.7491292854       -4.9256623179        1.0355013881
 H         1.9813048732       -3.7288271861       -2.9828697288
 H         1.0205725259       -2.3490018669       -3.2538760467
 H        -1.1284166508       -3.1404258109       -3.6864746148
 H        -1.9206037495       -4.6469442196       -3.2052720847
 H        -0.1758124277       -4.6696870096       -3.5906457754
 H        -2.3493297365       -3.4661966711        0.0307045724
 H        -1.4516046400       -2.0115700331       -0.2755651369
 H        -2.5982765227       -2.6004260495       -1.5216548565
 H         3.4337654925       -2.1024779739       -3.1159749364
 H         3.5784390412       -2.3110007040       -1.4087187764
 H         6.0460656268        2.2448806902       -1.6592323004
 H         5.7406184552        0.7643330219       -2.3311325483
 H         1.2132496646        1.1934650156       -0.3881260492
 H         2.5459497069        1.9714549723        0.5843516194
 H         2.0112674664        0.4241035536        1.0323427284
 H         3.8694135985       -1.1463044449        0.2838610807
 H         5.2789482584       -0.3449169006       -0.5206800975
 H         4.5594589389        0.2586674397        1.0071442063
 H         4.5297281913        3.3425453887       -3.6523964351
 H         6.1627437480        3.0609190419       -3.7896885341
 H         3.4800273665        0.8705899978       -8.1139504834
 H         3.2700491117        0.7518696018       -6.3375190518
 H         5.8974801713        4.3113431463       -5.8914940112
 H         6.9530017187        3.4716470098       -7.1947945133
 H         7.3661067952        3.3199027554       -5.4563164066
 H         6.6540800727        0.2565583541       -6.6307614407
 H         5.7846744294        0.9020472857       -8.0063243912
 H         7.2909559405        1.5785914632       -7.5524927187
 H         1.0762309068        1.0195299338       -7.5055313672
 H         1.7322130251        2.5223926750       -8.1595149682
 H        -0.8930612764        5.8734569599       -4.6987780447
 H        -2.2162380756        5.1380913317       -5.5271777657
 H         2.2208749390        4.2864769046       -4.1752843397
 H         1.1618173061        5.5478948854       -4.2293974999
 H         2.5566618055        5.3402721230       -5.5410906776
 H         0.4768171486        5.7305221037       -7.1414548235
 H         1.2187283294        4.3000214352       -7.7916558838
 H        -0.5044787980        4.2727214481       -7.4470590898
 H        -2.7394784516        5.7278542887       -3.1704637526
 H        -3.2512941720        4.1415119119       -3.4263596273
 H        -4.1875039981        2.2321691371       -0.7966117080
 H        -3.1734163485        0.7359682557       -0.5632594080
 H        -0.2236245570        3.8177527500        0.4363231483
 H        -1.5469597817        4.8589292209        1.2220092853
 H        -0.4729662984        5.4300119846       -0.0743459354
 H        -3.5033471507        5.0456600543        0.3580639820
 H        -3.1451193246        5.7271000405       -1.3162189910
 H        -4.2063037640        4.4119333032       -1.2218480238
 H        -3.6525506420        0.6932000075        1.7073065303
 H        -4.7721801379        2.1968378897        1.4885978181
 H        -2.7963050200        1.2339051610        6.2721518546
 H        -3.3761252747        2.7216396617        6.2503556400
 H        -0.9436911272        2.9149840360        4.1459005870
 H        -1.9276153234        3.7270047777        5.4093227587
 H        -1.5579514468        4.3625531236        3.8262714521
 H        -4.2798226396        4.6855087804        4.2949845637
 H        -4.0730959252        4.4492883659        2.6189940797
 H        -5.2312300832        3.5203865048        3.2666273169
 H        -5.6444625791        1.9483433793        7.1202092076
 H        -5.2909761810        0.5324903385        6.1513051738
 H        -4.9348091101        1.9141020828       12.0761330346
 H        -6.6133453014        1.3774731667       11.7802291014
 H        -5.3044227718        0.2071221840       11.8985853655
 H        -7.3274340852       -0.0276384674        9.6220036376
 H        -6.6723451107       -1.4291905618        8.6737032098
 H        -6.7958903199        0.1865762917        7.8538253820
 H        -5.3120652912       -1.7400085685       10.7351226933
 H        -4.3755781896       -2.2215020548        9.3371874171
 H        -3.6269110075       -1.1966436257       10.5683309698
 Na        0.7487984183        1.9508624056       -2.7367161021
