155

 C        -2.6952096351       -9.5209391386        2.8450591329
 C        -1.2337474376       -9.6415980344        2.5625834718
 C        -0.3931232708       -8.3596900662        2.7552526942
 C        -1.1741348484       -7.1940551001        2.0164796140
 C        -1.1658554920       -7.1335718077        0.4313010116
 C        -0.3400357262       -8.0998503812        4.2736117383
 C         0.9992054273       -8.6580084707        2.1063994214
 O        -0.6461891204      -10.7506626002        2.5125692375
 O        -1.7517265811       -6.3327694436        2.6255190310
 C        -0.3624648202       -5.9195783437       -0.0375937455
 C        -0.6711930409       -5.6415860612       -1.4737275912
 C        -1.1630124404       -4.1679281325       -2.0307431100
 C        -0.0248387803       -3.1539546403       -1.6334341732
 C         1.2364675867       -2.9012463239       -2.4647496049
 O        -0.7204760221       -6.5346591311       -2.2753017496
 O         0.0093577247       -2.8756286149       -0.4051372845
 C        -1.4015128687       -4.3035689757       -3.4747760588
 C        -2.4300654563       -3.7053625066       -1.2617528571
 C         2.2300484710       -2.0417776688       -1.6599741032
 C         2.0483239696       -0.5631999795       -1.7022562766
 C         2.9485788939        0.4028316265       -0.7981151089
 C         3.5806544411        1.2883659956       -1.8903041901
 C         4.9381662958        0.8985392810       -2.2904520512
 C         1.9603213629        1.0688237451        0.1755805138
 C         3.9264791536       -0.4774374047       -0.0434188946
 O         1.3000822925       -0.0464276002       -2.4838801741
 O         3.1128451714        2.3063311272       -2.3765754909
 C         5.4031045604        1.7618398622       -3.5359692209
 C         4.9725149105        1.1176867492       -4.8020170365
 C         5.3418013156        1.9385347561       -6.0896116368
 C         4.0464737560        2.5194435670       -6.7371009609
 C         3.0177527550        1.6598957364       -7.3910904805
 O         4.3473027792        0.0985814958       -4.9611440122
 O         3.8446363554        3.7109423246       -6.8399047961
 C         6.3756171045        3.0491989997       -5.9295510715
 C         5.8833527472        0.9820429642       -7.1399858528
 C         1.7178278070        2.4116683573       -7.4049600283
 C         0.9171036905        2.6643302653       -6.1368804019
 C        -0.0326070471        3.9240942486       -5.9620011401
 C        -1.1193770047        3.5455588268       -4.8910689024
 C        -1.9593356717        4.7748550268       -4.5319026597
 C         0.9078884987        5.0039268086       -5.5564259006
 C        -0.7241872195        4.2660676281       -7.2514343391
 O         1.2495189131        2.0676446971       -5.1414183718
 O        -1.2954344811        2.4292871443       -4.4490689273
 C        -2.3452899951        4.7873652773       -3.0522898747
 C        -1.2589295662        4.4590975769       -2.0827453962
 C        -1.5687478145        4.1857837589       -0.6282096696
 C        -1.8006520513        2.5779606049       -0.5224916763
 C        -3.1151000164        1.8664071961       -0.1075958772
 O        -0.0770793317        4.4156231275       -2.4495259983
 O        -0.9129811500        1.8404196082       -0.9427149295
 C        -0.1844324996        4.5101868423        0.0992776471
 C        -2.7351236246        4.9573203244       -0.0846831542
 C        -3.5614632108        2.0325862040        1.3228264956
 C        -2.3775743443        2.3964946210        2.2766161348
 C        -2.5216563531        3.0080945097        3.7196784494
 C        -3.1617727106        1.9109431745        4.6168024515
 C        -2.7491546263        1.9255167123        6.0781459726
 C        -1.1296838994        3.5254768193        4.2085135258
 C        -3.6049026721        4.1936409604        3.8038720561
 O        -1.2380814283        2.4871804332        1.9031355708
 O        -3.9266233236        1.0861656113        4.1623178901
 C        -3.8828020499        1.4000728186        6.9825941188
 C        -3.3430780717        0.6598338383        8.2793655892
 C        -4.3085241528       -0.0988463572        9.3588780486
 C        -4.8696527401        1.1124121506       10.1688140650
 C        -5.8039009135        0.8905038714       11.4294146020
 O        -2.1644920863        0.6331626927        8.5608041987
 O        -4.3042244302        2.1526642457        9.9698561808
 C        -5.5456319040       -0.8914159669        8.6936288893
 C        -3.4339405626       -0.9138544051       10.3529233367
 H        -2.9933785496      -10.5717333489        2.8031683836
 H        -2.8055017608       -9.0411705392        3.8294869653
 H        -3.0548280702       -8.7645681917        2.0986324074
 H        -0.6749331563       -7.9969840654       -0.0070435950
 H        -2.1657102240       -7.1429555000        0.0788538167
 H        -1.3377724775       -7.9304455404        4.7160210367
 H         0.2731344491       -7.1793036606        4.4478859096
 H         0.0882416869       -8.8811543655        4.9149727193
 H         1.0070579200       -9.2490004349        1.2255166105
 H         1.4573919165       -7.6815340458        1.9072718286
 H         1.4552803874       -9.3331598851        2.8187371227
 H        -0.3440086628       -5.0976347859        0.5855052421
 H         0.6743995444       -6.2075713970       -0.0345911003
 H         1.7087578598       -3.8566188719       -2.7324142061
 H         1.0321807138       -2.4947988203       -3.4389801990
 H        -1.6855127502       -3.3108409184       -3.9735112321
 H        -2.0784784445       -5.1411831547       -3.6797412395
 H        -0.4999390548       -4.5775946074       -3.9643031881
 H        -1.9023381311       -3.4535495713       -0.3331031446
 H        -2.9702678979       -2.8478299446       -1.6851165256
 H        -3.0410944772       -4.5574975332       -1.0850839376
 H         3.1682700248       -2.3608904818       -1.8982345727
 H         2.2264222919       -2.2406762455       -0.6089780738
 H         5.7936393068        1.0387909971       -1.6522641082
 H         5.0221696907       -0.1365419091       -2.6627946226
 H         1.0646483244        1.6355991120       -0.2436204765
 H         2.4794388180        1.8268648994        0.6961605527
 H         1.6351593078        0.3334363447        0.9836857771
 H         3.5984651910       -1.3193881365        0.5252036225
 H         4.7315407791       -0.9603223673       -0.6459586970
 H         4.4555367434        0.1160854606        0.6719384967
 H         4.9543425134        2.7676476209       -3.5662537031
 H         6.4567821325        1.8763314095       -3.5950319454
 H         3.2423984584        1.4350256491       -8.4189541798
 H         2.8514689222        0.7120895602       -6.9129239326
 H         6.0104995461        3.9225849839       -5.3128715069
 H         6.5716233958        3.5398328730       -6.9416148938
 H         7.3335358748        2.8624782783       -5.4729887757
 H         6.3506747140        1.4275670134       -8.0167200849
 H         6.6599130960        0.3378292710       -6.6948903092
 H         5.1210028597        0.3090330525       -7.4078892376
 H         0.9932996025        1.8742365464       -8.0992224790
 H         1.8278548462        3.3540476500       -7.9646711307
 H        -1.4593473620        5.7274686876       -4.7453705409
 H        -2.9662921424        4.9249198954       -5.0257668308
 H         1.0477165353        4.6668613485       -4.5582331731
 H         0.7055654915        6.0711486652       -5.8562872479
 H         1.8793840601        4.8360191084       -5.9727024964
 H        -1.7142241904        4.7100881563       -7.0192765485
 H        -0.1702394189        5.0230588957       -7.7533126940
 H        -0.8139371657        3.4794833943       -7.9593800065
 H        -2.8076499819        5.7477139622       -2.8391967527
 H        -3.0770212739        4.0208835687       -2.8684551206
 H        -3.9427709416        1.9507723977       -0.8831993897
 H        -2.8414438722        0.8259040194       -0.2391031010
 H         0.6543811532        3.8937780163       -0.2948914263
 H        -0.3227192733        4.2736519843        1.1506125207
 H         0.0151434262        5.5670832883        0.0168447922
 H        -2.7371883431        5.0869393401        0.9651499465
 H        -2.6762386250        6.0371867141       -0.2441187222
 H        -3.7007303641        4.5205652240       -0.2862934794
 H        -4.3011704076        1.3887030644        1.7056656490
 H        -4.2165984402        2.8405628982        1.2983541206
 H        -1.9136502193        1.2654819639        6.0276391519
 H        -2.4454380343        2.9099449415        6.3714125009
 H        -0.4451317852        2.7361313060        4.5822403221
 H        -1.2328531348        4.0069415665        5.1973650616
 H        -0.6338243137        4.2125014557        3.4780758947
 H        -4.0033652626        4.4573138139        4.8115214045
 H        -3.2572544152        5.0547124316        3.2383527040
 H        -4.5510384623        3.8280809553        3.4101977970
 H        -4.4689108118        2.2625675302        7.4036180383
 H        -4.5373305356        0.8096966333        6.3140120911
 H        -6.1546875745       -0.1289895790       11.3712452535
 H        -5.1394391644        0.9072514250       12.3428730826
 H        -6.6051759432        1.6004869996       11.5678250365
 H        -6.1506762095       -1.3541977481        9.5077352006
 H        -5.2333025441       -1.7768259948        8.0630308929
 H        -6.1379846402       -0.2672514152        8.0068159886
 H        -4.0859875073       -1.0824321530       11.2337534981
 H        -3.0121177722       -1.8593420884        9.8825857157
 H        -2.5352701565       -0.3790746827       10.6203915568
 Na        0.7905924125        2.1589700755       -2.7767372982
