155

 C        -2.9792048357       -9.0235376841        2.5200059111
 C        -1.4144243240       -9.3732814346        2.7062798580
 C        -0.4245729059       -8.1955008240        2.6125429039
 C        -0.9468479650       -6.8061245310        2.0227184275
 C        -1.3449284556       -6.7366804111        0.5990683164
 C        -0.0212585609       -8.0950926614        4.0757298535
 C         0.7264536988       -8.7431480827        1.6557135419
 O        -1.0785484634      -10.4833598773        2.7056311818
 O        -1.0411125107       -5.7832321886        2.7297316085
 C        -0.9109996132       -5.4660625602       -0.0602250398
 C        -1.1708131858       -5.6588460592       -1.6246738547
 C        -1.6839178529       -4.3766132022       -2.3414646651
 C        -0.5616214677       -3.2571533087       -1.8201997433
 C         0.7698028144       -3.1569971539       -2.6088060128
 O        -0.9062449649       -6.6436209121       -2.3041173027
 O        -0.7281080443       -2.6230716731       -0.7964028241
 C        -1.7016778505       -4.4590871516       -3.8508435927
 C        -3.1427445125       -4.1302187871       -1.8648973737
 C         1.8097616075       -2.4401157205       -1.6698141036
 C         1.7965859715       -0.8534712129       -1.7601606612
 C         2.9051832852       -0.0296237667       -1.0837361258
 C         3.4846172037        0.9664876746       -2.1093350214
 C         5.0326148930        1.2264336954       -2.1575044487
 C         2.1659888858        0.8258943075        0.0424930404
 C         3.8779490046       -0.9900242665       -0.3969420832
 O         0.8615983614       -0.3912140299       -2.4106506250
 O         2.6954856362        1.7490149070       -2.5947914387
 C         5.4430482727        1.8082996512       -3.5184720912
 C         5.1881519202        0.9080250685       -4.7615126215
 C         5.2066397911        1.6762297079       -6.1767205470
 C         3.8330577439        2.3609395786       -6.4315726933
 C         2.6827833192        1.6203750419       -7.1496157201
 O         5.1439049478       -0.3115511466       -4.6649088547
 O         3.6868410981        3.4865044421       -5.9934530146
 C         6.3892502924        2.7520766049       -6.1209292539
 C         5.5749096845        0.6503637334       -7.2918088913
 C         1.4719109693        2.5161459562       -7.4170371271
 C         0.8112839661        2.8337662518       -6.0660783292
 C        -0.4719792471        3.7351422771       -6.1576433028
 C        -1.4266835739        3.4936813427       -4.8669380603
 C        -2.5396306952        4.3812700900       -4.5228057866
 C         0.0064519891        5.2806335478       -6.2577676401
 C        -1.3628279507        3.4280494119       -7.4893187937
 O         1.2469096293        2.2973023720       -5.0728455407
 O        -1.3372534538        2.4868473264       -4.1726121473
 C        -2.7181887926        4.6930549235       -2.9410370398
 C        -1.3305180649        4.6443527243       -2.2140326172
 C        -1.2480060559        4.4388770317       -0.6206568698
 C        -1.6772170634        2.9490477470       -0.3824593706
 C        -3.0598879581        2.5584900354        0.3297474640
 O        -0.3074334451        4.6773949060       -2.8599174953
 O        -0.8999946927        2.0741502875       -0.7393261142
 C         0.2901550248        4.6101485771       -0.2042343562
 C        -2.2023472674        5.3945636532        0.0952378128
 C        -3.2337128322        3.0645598585        1.8010459370
 C        -1.9902494563        2.9611800623        2.6110761107
 C        -2.0469456567        3.3400630484        4.0802114532
 C        -2.8908246216        2.2715680042        4.9788552613
 C        -2.5532530051        1.8049878258        6.3909717642
 C        -0.6267869578        3.2193177996        4.6247399453
 C        -2.5895809293        4.7471084343        4.3573164158
 O        -0.9250711158        2.6259691044        2.0604936283
 O        -3.6783682834        1.5555267243        4.3593770480
 C        -3.3620950025        0.7521792431        7.0727216292
 C        -2.6839965482        0.2960724341        8.4241544654
 C        -3.5163250345       -0.2547723656        9.5590002880
 C        -4.3833584748        0.9706830942       10.0191049541
 C        -5.5459709774        0.9851015543       11.0262693116
 O        -1.4843642056        0.2611608199        8.4398047563
 O        -4.2891703638        2.0023291756        9.3643186677
 C        -4.4446935000       -1.4937993610        9.2354352134
 C        -2.5645394185       -0.5966280760       10.7450831318
 H        -3.5806499101       -9.5872316181        3.1758205782
 H        -3.0968763890       -7.9321325799        2.7213468111
 H        -3.0774179578       -9.3269823032        1.4983484565
 H        -1.0398867983       -7.6381078990       -0.0514369139
 H        -2.4962916039       -6.7689521764        0.5984403040
 H        -0.7820823274       -8.0081448409        4.8166138763
 H         0.6171283728       -7.2058616240        4.2016709345
 H         0.6180109189       -8.9368009137        4.2826272382
 H         0.1694435645       -9.1519468010        0.8879827566
 H         1.2937205325       -7.8989801473        1.3219192112
 H         1.4685131329       -9.3404036805        2.2337333017
 H        -1.5313556532       -4.6574262154        0.2308452023
 H         0.1447174492       -5.1643991065        0.1998338942
 H         1.1914173099       -4.1113206366       -2.9608418334
 H         0.7241120934       -2.3330697919       -3.3004251633
 H        -1.7817465864       -3.5304603959       -4.3336698629
 H        -2.5628068197       -4.9890525302       -4.1783591447
 H        -0.8069430577       -5.0349213138       -4.2302760472
 H        -3.6088593526       -3.5191171412       -2.6164091953
 H        -3.5633967926       -5.1678365067       -1.9014160825
 H        -3.2497717719       -3.6967038912       -0.8452689583
 H         2.7688186964       -2.7969152750       -1.9570437015
 H         1.6674399382       -2.7694745464       -0.5668903069
 H         5.3037793049        2.0115939446       -1.4564357608
 H         5.6806983234        0.3889765646       -1.8350518688
 H         1.2720202611        1.2304617524       -0.3354818552
 H         2.9306024420        1.5683557304        0.3627382276
 H         1.8863299031        0.2198778830        0.9131074533
 H         3.5026629638       -1.5510290269        0.4958824102
 H         4.3568625513       -1.6439181438       -1.0469359131
 H         4.7466056483       -0.4085360252       -0.0107967633
 H         4.6903700562        2.6600329144       -3.6381866556
 H         6.4567037614        2.2027818566       -3.4659457649
 H         3.0504849769        1.2314247234       -8.1357085364
 H         2.4656533827        0.7616088560       -6.4086086857
 H         6.0123140763        3.6950047894       -5.8254873424
 H         6.9165468532        2.9310033068       -7.0388554558
 H         7.1137433725        2.5292366056       -5.3658961645
 H         5.3069812887       -0.4060362602       -7.1529392274
 H         5.2123266124        1.0268149171       -8.2408999210
 H         6.6752757412        0.6075419546       -7.3702102402
 H         0.7004891772        2.0714953124       -8.0540636750
 H         1.8075201323        3.4607535954       -7.7586789531
 H        -2.6017795514        5.2953646482       -5.0634548345
 H        -3.3869901351        3.7501782767       -4.7460833999
 H         0.3831904816        5.6296922930       -5.3185668916
 H        -0.8278903099        5.8366694573       -6.5576772914
 H         0.8027670364        5.2132627848       -6.9832306749
 H        -2.3435170476        4.0121658660       -7.3946162556
 H        -0.8845219855        3.7769753457       -8.3850147746
 H        -1.6894014622        2.4163221669       -7.6114664476
 H        -3.2675714005        5.6660212993       -2.9916655537
 H        -3.4419701625        3.9517356631       -2.4652078989
 H        -3.8589316625        2.9842415424       -0.2776854890
 H        -2.9664301573        1.5264403699        0.2844088612
 H         0.9203110541        4.0054473139       -0.7943785730
 H         0.3894780443        4.4018620596        0.9045972143
 H         0.5660549942        5.6319585096       -0.3709073940
 H        -2.1468922813        5.1442195949        1.1755153693
 H        -2.0230054187        6.3967699439       -0.0729640731
 H        -3.2802144507        5.3917270973       -0.2569735395
 H        -3.9568102803        2.3414545610        2.3456517199
 H        -3.6935735070        4.0623596891        1.7430109735
 H        -1.5698481458        1.2862773531        6.2485333654
 H        -2.4281310820        2.7046655737        7.0507976640
 H        -0.2734921402        2.2616197095        4.3217570652
 H        -0.7050525667        3.3589421006        5.6703577893
 H         0.1068890160        3.9518930487        4.2790645685
 H        -2.3438987001        4.9807566716        5.4037796245
 H        -2.0733595143        5.4639784913        3.8147402104
 H        -3.6356564106        4.7948465401        4.0594072307
 H        -4.3800585055        1.1454698541        7.4027686390
 H        -3.4684740653       -0.1556305106        6.4380465231
 H        -5.2129846540        1.0865454838       12.0494600791
 H        -6.0380000502        1.9061852418       10.7634099067
 H        -6.1986543469        0.1031967777       10.9690361419
 H        -4.8215744099       -1.9320887910       10.1299009085
 H        -3.8995602745       -2.2511670530        8.7262567101
 H        -5.3432961823       -1.3292905876        8.7003350103
 H        -3.0776954390       -1.2404754081       11.4459482178
 H        -1.7018634700       -1.1385771427       10.4116702652
 H        -2.3640280817        0.3332808501       11.1934499627
 Na        0.4650965946        2.1816595198       -2.9208039472
