155

 C        -2.8535524641       -9.0789161039        4.3893236691
 C        -1.9383988714       -8.0928414727        3.6093608438
 C        -1.2069052706       -8.6238966263        2.1963271652
 C        -1.3045318455       -7.4601121843        1.0666800222
 C        -2.7630078752       -7.2034290018        0.7509363268
 C         0.2421801740       -8.7126317865        2.5166054412
 C        -1.8342057345       -9.9276848993        1.6443233831
 O        -1.6674798179       -6.9971422395        4.0403644701
 O        -0.2859371088       -6.9258766722        0.6689488179
 C        -2.9587377128       -5.7952411861        0.2181572107
 C        -2.8007185105       -5.5747020773       -1.3316139050
 C        -3.1723594208       -4.1526522811       -1.9877203035
 C        -1.8148181035       -3.4276510779       -2.0218806045
 C        -1.3423288391       -2.9716759475       -3.4348323070
 O        -2.4154497658       -6.4651549037       -2.0889909695
 O        -1.1461193317       -3.0741730511       -1.0788241246
 C        -3.6559660306       -4.4839521034       -3.4482328967
 C        -4.1952896188       -3.2943903494       -1.2758266165
 C        -0.0845119542       -2.1586737035       -3.2767159376
 C        -0.1328608492       -1.0165305736       -2.3056982126
 C         0.9158840071       -0.6103020066       -1.1841023535
 C         2.0058613226        0.6011762403       -1.7551850755
 C         3.5069816460        0.1841909811       -1.8985757175
 C         0.0411113274        0.1031700956       -0.0160578513
 C         1.7294738812       -1.7522332906       -0.5901653701
 O        -1.0340899885       -0.2556450280       -2.4652111308
 O         1.5913041302        1.6965789761       -1.8763183636
 C         4.2807823885        0.8049829550       -3.1491940791
 C         3.9164294300        0.1479271014       -4.6212866487
 C         4.2760081024        1.0341030082       -5.9017444484
 C         2.9782223857        1.9123154062       -6.0082402742
 C         1.7582861256        1.4421518467       -6.7879894295
 O         3.3479155522       -0.9436110500       -4.7396733118
 O         2.9780697706        3.0438407150       -5.5018526570
 C         5.3525634880        2.0472544234       -5.7320878928
 C         4.5045933331        0.2626967160       -7.2182598902
 C         0.7007032482        2.5575456570       -6.8943050583
 C        -0.2175152018        2.5981033305       -5.6538643050
 C        -1.6618584682        3.2245660295       -5.8770927683
 C        -2.3786048705        3.4322180697       -4.5420941602
 C        -2.8778200702        4.9199578835       -4.1604972689
 C        -1.5749602885        4.4690108298       -6.8777543194
 C        -2.4967710643        2.2205852404       -6.8744273046
 O         0.2309621470        2.2320051720       -4.5712669818
 O        -2.5654711650        2.5223056232       -3.7731681572
 C        -3.0630937528        5.0522540121       -2.5875398861
 C        -1.7175726120        4.8298471237       -1.7905336839
 C        -1.6491203275        5.2808513748       -0.2148016815
 C        -1.3895394678        3.9739612850        0.6657157749
 C        -1.6018692180        3.8023156106        2.1943778961
 O        -0.6825662987        4.4238982933       -2.2136652565
 O        -1.2014806359        2.9209835038        0.1360792868
 C        -0.4575445877        6.2303363891        0.0760511250
 C        -2.9986386162        5.7339999886        0.3989098224
 C        -0.6273986839        4.5490439627        3.1706147142
 C         0.9146134955        4.2565544968        2.8974437496
 C         1.6851003563        3.3810477516        3.9122280613
 C         1.0395201591        2.0080169122        4.3198831021
 C         1.4627372293        1.3229453802        5.5739083423
 C         2.9989956045        3.0360232226        3.1414066399
 C         2.1908633749        4.2561989356        5.0524838215
 O         1.3975771066        4.7361721495        1.9074641385
 O         0.1299753098        1.4816195878        3.6175863855
 C         0.2606294781        1.3566382964        6.5092744453
 C         0.4838811667        0.3724346364        7.6617144834
 C        -0.8988403343       -0.2797993795        8.4498770984
 C        -1.8594044254        0.9730160646        8.7719215859
 C        -2.2214499187        1.2171117276       10.2406869102
 O         1.6200572129        0.1428205789        7.9646521855
 O        -2.1548925662        1.6732796047        7.7901313213
 C        -1.5653296813       -1.1988138149        7.4111423746
 C        -0.4195499577       -1.0402800383        9.6316283188
 H        -2.6045016458       -8.9756220574        5.4734246209
 H        -3.9079770571       -8.8834326303        4.4347853528
 H        -2.7235301113      -10.1214070773        4.0684965084
 H        -3.1119685419       -7.8342959634       -0.0164981173
 H        -3.2022598832       -7.3361664974        1.7005367202
 H         0.5812263044       -7.7105541363        2.5512980201
 H         0.8807815873       -9.2658483561        1.8268663208
 H         0.3887824445       -8.9954939037        3.5296263747
 H        -2.9809638350       -9.8900098460        1.6603672976
 H        -1.3308177815      -10.1324935228        0.6979331372
 H        -1.8133912502      -10.7406153592        2.3866601105
 H        -3.9421898273       -5.2795985838        0.5136237799
 H        -2.2295864505       -5.2408741679        0.7802776854
 H        -1.1344686678       -3.7770436641       -4.1430446453
 H        -2.0897441394       -2.2993558533       -3.8739162988
 H        -3.3906979567       -3.6676187529       -4.1084131322
 H        -4.7479088447       -4.5825375906       -3.3948643785
 H        -3.1488829487       -5.3042725143       -3.7812965310
 H        -3.9392240473       -3.1898773420       -0.2301687056
 H        -4.2543941030       -2.2634387887       -1.6646835447
 H        -5.2476693070       -3.7165957314       -1.2995669524
 H         0.0843160475       -1.7064862063       -4.2881724193
 H         0.8470385721       -2.8242942521       -3.2385978791
 H         4.0192506054        0.6357577412       -0.9964922783
 H         3.6357121500       -0.9043926526       -1.9285950166
 H        -0.2094047433        1.1544161596       -0.1903852679
 H         0.5522865729       -0.0029249531        0.8773490349
 H        -1.0112184708       -0.3051021981        0.1725609390
 H         1.0707307151       -2.4917074213       -0.1676651131
 H         2.4080377216       -2.1610876952       -1.2951372834
 H         2.2339805191       -1.4368786192        0.3327720022
 H         4.1900805322        1.8940542003       -3.1436975015
 H         5.3816026470        0.6436363862       -3.0936211551
 H         1.9441849990        0.9068185729       -7.7190288721
 H         1.3638297645        0.6010087180       -6.2221870266
 H         5.0449707332        2.7586772470       -4.9565113360
 H         5.5000752896        2.6045497906       -6.6702409512
 H         6.3748568628        1.5925076598       -5.5595637415
 H         5.6054202931        0.1998148581       -7.4230342959
 H         4.2131145923       -0.7789120851       -7.2319004996
 H         4.0488837146        0.7974377103       -8.0987909532
 H         0.0698052110        2.5074007364       -7.7973773158
 H         1.2224746454        3.5878359447       -6.9183145573
 H        -2.2071856278        5.6714701918       -4.6298297350
 H        -3.8649619736        4.9291607591       -4.6889322559
 H        -0.9412752051        5.1484696289       -6.3153273563
 H        -2.5032498670        5.0112851109       -7.2337590182
 H        -1.1369514473        4.2632865583       -7.8228272422
 H        -3.5534163478        2.6634960257       -7.0079011403
 H        -2.0003027742        2.1566335362       -7.8354264774
 H        -2.5080314571        1.2029235407       -6.4869163741
 H        -3.6596147009        5.9458675078       -2.4102274668
 H        -3.6318141969        4.1591081762       -2.1761912621
 H        -2.6201195253        4.0702366781        2.5344339991
 H        -1.6432912430        2.6966417705        2.3029106085
 H         0.4595829364        5.7381666972       -0.3176823189
 H        -0.2650273161        6.5543129562        1.0633029755
 H        -0.5662522127        7.1912407249       -0.4436698091
 H        -2.8978110600        6.0334009245        1.4353753505
 H        -3.4924752615        6.6316599674        0.0334105153
 H        -3.7519970771        4.9588377907        0.5395303935
 H        -1.0383730458        4.2936381406        4.1202277184
 H        -0.9411118649        5.5657638399        2.8857195541
 H         1.5804706040        0.2599450360        5.2523658184
 H         2.3891892422        1.7545850543        6.0911573768
 H         2.8458433049        2.6039077771        2.1242970419
 H         3.4642025727        2.2315408039        3.7175954541
 H         3.7844666877        3.8261826577        2.9178706709
 H         2.7115452104        3.7485064153        5.8524397601
 H         2.9209622774        4.9939749533        4.7548975581
 H         1.3542648602        4.7446696037        5.6068648207
 H         0.0641868596        2.4045210125        6.9061410305
 H        -0.6767230819        1.1056867774        5.9564017476
 H        -2.5413773289        2.2264111657       10.5338240820
 H        -3.0901240404        0.6126936353       10.4394474015
 H        -1.4081845631        1.0193818660       10.9749989768
 H        -2.4255572042       -1.5518938125        7.9179477399
 H        -0.8662794877       -1.9891102759        7.1855506380
 H        -1.7816934808       -0.7215632705        6.4927845872
 H        -1.1532979362       -1.6044353578       10.2163386260
 H         0.3894882823       -1.6382058467        9.3652623796
 H         0.1166930379       -0.3496962888       10.3199210196
 Na       -0.8169134448        2.1391905741       -2.3436205318
