155

 C        -2.2890100306       -8.8876132476        4.6750884731
 C        -1.7620245234       -7.9692086369        3.5023299033
 C        -1.3126981104       -8.6828915501        2.1206189466
 C        -1.6089628438       -7.6072399396        0.9669792800
 C        -3.1475461764       -7.2208527453        0.8802640533
 C         0.1464561680       -9.1662562273        2.0918708216
 C        -2.1999556421       -9.9372687192        1.6452982027
 O        -1.5036148694       -6.8176560985        3.7750520768
 O        -0.7774566927       -7.2697426823        0.2037459780
 C        -3.3477053929       -5.7452997857        0.5481797148
 C        -3.1173381308       -5.4290947020       -1.0081968287
 C        -3.5008570993       -4.0355218903       -1.6809739277
 C        -2.2101536025       -3.1641197148       -1.7886848054
 C        -1.4596541981       -2.9491564385       -3.1439806105
 O        -2.7007585959       -6.2545768226       -1.7823661920
 O        -1.7810379920       -2.7020743460       -0.6868310176
 C        -4.1610715809       -4.4923893204       -3.0042885397
 C        -4.4929287147       -3.4575375018       -0.7968723310
 C        -0.0482042826       -2.3153136374       -3.1929443455
 C        -0.1071811186       -1.1301744627       -2.1222677319
 C         1.0505682962       -0.9827553852       -1.1556886827
 C         2.0378663964        0.1248303839       -1.7241571931
 C         3.5869054883       -0.0033500092       -1.7830226399
 C         0.4235725226       -0.1863420952        0.0979632438
 C         1.7477175748       -2.3469128162       -0.8585051793
 O        -1.1011429923       -0.4312391941       -2.0611899086
 O         1.5386253492        1.0557002061       -2.2544849938
 C         4.2747906085        0.6094156379       -3.0804931088
 C         3.5105245850        0.3212826342       -4.3932280674
 C         3.9763533070        1.0314798164       -5.7486973563
 C         2.9157516775        2.2313613107       -6.0186320774
 C         1.6378715207        2.1081409339       -6.9013425372
 O         2.6199124873       -0.5739684283       -4.5023876884
 O         3.1441257162        3.3564422919       -5.5876407574
 C         5.3799639620        1.6333403522       -5.5963991320
 C         4.0438196034        0.0821340650       -6.9836099528
 C         0.6125752765        3.2712766762       -6.5584172129
 C        -0.3924927902        2.8066661134       -5.4463060053
 C        -1.9098817193        3.2769181162       -5.7148994759
 C        -2.4038991756        3.6203208238       -4.2321468844
 C        -2.8399277453        5.1100623698       -4.0496651935
 C        -2.0702627674        4.3020461340       -6.8504533030
 C        -2.8143898997        2.0056371606       -6.0299925211
 O        -0.1531216954        1.9749684428       -4.5794710922
 O        -2.6955402782        2.7756282743       -3.4247117363
 C        -2.9562724783        5.6320703057       -2.5820922815
 C        -1.6278105094        5.2643778319       -1.7337324288
 C        -1.5866978593        5.4468124502       -0.1443856246
 C        -1.2003867772        3.9847072557        0.4331962590
 C        -1.3827520061        3.7033646847        1.9861209920
 O        -0.6507424422        4.9077130873       -2.3402994161
 O        -0.8677447815        3.0861685385       -0.2665818134
 C        -0.5421804054        6.5272346953        0.2448587482
 C        -3.0273939789        5.9059990576        0.3630292247
 C        -0.2521398460        4.3368192306        2.7967929109
 C         1.1343545014        3.9240757228        2.2547920398
 C         2.0330453592        3.4173088924        3.4292732496
 C         1.4096707239        2.0344635891        4.0058479124
 C         1.8032164564        1.4203669689        5.3974955489
 C         3.4202241654        3.1005701032        2.8594967676
 C         2.0402328906        4.4207403836        4.5425658153
 O         1.4556092994        3.8919064856        1.1118062874
 O         0.5923768425        1.3545031939        3.4131919363
 C         0.5567398221        1.1125137013        6.2547880561
 C         0.8532704387        0.3127146068        7.5123945310
 C        -0.3496487687       -0.3025185883        8.2696476970
 C        -1.4439998082        0.9180032217        8.6910515462
 C        -1.2219454984        1.6027571619       10.0479091401
 O         1.9974248582        0.1968025366        7.8680640257
 O        -2.3744155027        1.2832769567        7.9961283812
 C        -1.2031190862       -1.1259656405        7.3189871091
 C         0.2393187438       -1.1089348031        9.4728052369
 H        -2.8784907616       -8.2092562290        5.2867624113
 H        -2.7261579002       -9.9172276508        4.5476669926
 H        -1.4439666227       -8.9663522392        5.3409780781
 H        -3.6123914483       -7.8817469365        0.1345631405
 H        -3.7619843368       -7.4520238413        1.7227255624
 H         0.9501096028       -8.4517962110        2.1791738685
 H         0.2178579870       -9.6289031188        1.1283516596
 H         0.2657571452       -9.9860045575        2.8044748855
 H        -3.2932222719       -9.7460520577        1.6998305143
 H        -1.9283945013      -10.3417178910        0.6415355154
 H        -1.8770790576      -10.8416235800        2.2305689154
 H        -4.2499032251       -5.4957879561        0.9384963170
 H        -2.6336894556       -5.1332808583        1.0953951544
 H        -1.5420567702       -3.9163895253       -3.6012469194
 H        -2.0803691672       -2.3263156107       -3.7500306068
 H        -4.4186241776       -3.5971196907       -3.5941257420
 H        -5.1405420532       -5.0153501646       -2.7814243794
 H        -3.5495828642       -5.1387771690       -3.6180641702
 H        -4.0300384034       -3.2293181468        0.1647043852
 H        -4.8308347017       -2.4339469177       -1.0870019359
 H        -5.4119201908       -4.0253224590       -0.6433454636
 H         0.2189577012       -2.0275311942       -4.1925517016
 H         0.7219112842       -3.0615432368       -2.9101967446
 H         3.9406173360        0.5224277110       -0.9029852494
 H         4.0219007684       -1.0285962192       -1.7714907100
 H        -0.0127437261        0.8150867769       -0.1572267263
 H         1.2000229559        0.1492138099        0.8319266571
 H        -0.2688325829       -0.7772536201        0.6699971913
 H         0.9604880821       -3.0044648342       -0.3837226545
 H         1.8471707266       -2.9207392859       -1.7488664633
 H         2.6848953462       -2.2609556227       -0.3441642411
 H         4.4677142507        1.7109167708       -3.0530778714
 H         5.2715535778        0.2153341036       -3.1972498585
 H         1.8884087645        2.1227743865       -7.9474589366
 H         1.1319714939        1.1908665663       -6.6960500375
 H         5.4185844597        2.2431110712       -4.6939094222
 H         5.5449962924        2.3038133785       -6.5100292743
 H         6.1688145104        0.8352244515       -5.4790042962
 H         3.4450319940       -0.8477051526       -6.8672380769
 H         3.6312340535        0.5776612065       -7.8641143047
 H         5.0943616869       -0.2145887892       -7.1364657148
 H         0.1022197768        3.6291779593       -7.5029928364
 H         1.2342317647        4.0927206219       -6.1674087289
 H        -2.0705412721        5.7211972104       -4.5369561978
 H        -3.7463159226        5.1660819271       -4.6617414524
 H        -1.2191745903        4.9346087705       -6.9292307578
 H        -2.8489305374        4.9774016891       -6.6702575763
 H        -2.0607818772        3.7483043226       -7.7957917985
 H        -3.8183103555        2.0625383959       -5.5982189269
 H        -2.7793696113        1.8727525952       -7.1415974248
 H        -2.3022113843        1.1631612292       -5.5754170077
 H        -3.0882063181        6.7268155852       -2.5359023059
 H        -3.8053697929        5.2087185275       -2.0411303702
 H        -2.2776156764        4.2335728474        2.2071459910
 H        -1.4024832890        2.6376735724        2.0145458908
 H         0.4468801987        6.0805172681        0.2690495739
 H        -0.6194574171        6.8711986276        1.3212844474
 H        -0.4772829474        7.3385952002       -0.4186718852
 H        -2.7858262720        6.2467163618        1.3996678650
 H        -3.4895438844        6.7092630043       -0.0650435012
 H        -3.9018030978        5.2564295018        0.3921029599
 H        -0.4273579469        4.0088328689        3.8574837857
 H        -0.2177835137        5.4674624948        2.6474642055
 H         2.5158450453        0.5471222147        5.3945392944
 H         2.3995039453        2.1452559556        6.0176395970
 H         3.4509453551        2.3813555982        1.9974729927
 H         4.0645980595        2.5676627672        3.6021798778
 H         3.8433936370        4.0496148387        2.4775630364
 H         2.6496303410        4.0278472375        5.3887496109
 H         2.4153674019        5.3686839943        4.2890718016
 H         1.0807604408        4.7553945862        4.8990790209
 H         0.1068655043        2.1188983347        6.4487101292
 H        -0.2388680894        0.5565313375        5.6998360287
 H        -2.0965574708        2.1467320145       10.3760710673
 H        -0.9945032673        0.8672977808       10.8375981261
 H        -0.3437769570        2.2649918859       10.0754707348
 H        -2.0522605650       -1.6616565979        7.7310480888
 H        -0.5496930073       -1.8440524077        6.8775181522
 H        -1.6417045832       -0.3957584731        6.6585089755
 H        -0.5777598963       -1.5294400779       10.0768928379
 H         0.8270404874       -1.9802115723        9.1707250600
 H         0.6941299950       -0.3706071620       10.1187177568
 Na       -0.7074809501        2.1535328249       -2.3801509438
