155

 C        -2.0088071266       -8.8935866031        4.5773418344
 C        -1.7071109485       -8.0852063681        3.3441403662
 C        -1.3600020469       -8.7788545703        2.0059262358
 C        -1.6197069064       -7.6048988197        0.9624941391
 C        -3.1147549006       -7.1649223921        1.0104794481
 C         0.1146493020       -9.1838258572        2.0336264145
 C        -2.4013942825       -9.8991540210        1.9315025186
 O        -1.5768986869       -6.8717125334        3.3949649201
 O        -0.7797966287       -7.1762153292        0.2270851228
 C        -3.2790663851       -5.6601049268        0.5473255734
 C        -3.2352499864       -5.5801723803       -0.9586546436
 C        -3.6581759766       -4.0416765735       -1.5231122685
 C        -2.3660991593       -3.1845154772       -1.5448586490
 C        -1.7176887667       -3.1155196495       -2.9422518780
 O        -2.9280653507       -6.4530208065       -1.7106477751
 O        -1.8601872974       -2.6872656548       -0.6262957812
 C        -4.3476258363       -4.1562086084       -2.9492888769
 C        -4.6699806531       -3.3231691137       -0.6615982205
 C        -0.3980884593       -2.4564016258       -2.9522771826
 C        -0.2751810332       -1.1732019498       -2.1342606034
 C         1.0494608608       -0.9382255560       -1.2127937485
 C         2.0601371871        0.1390175113       -1.9043223813
 C         3.5498792068       -0.2599137616       -2.0469683617
 C         0.5601322755       -0.4079596759        0.2169415132
 C         1.8713427561       -2.2179729742       -0.8229775880
 O        -1.0138393077       -0.2090812400       -2.2154831471
 O         1.7973232486        1.3633127943       -2.0699125147
 C         4.1534076271        0.5283609399       -3.1497910549
 C         3.3686435290        0.2952935953       -4.4575944463
 C         3.8666342333        1.0299222760       -5.6204915663
 C         2.9346773641        2.3747131571       -5.8876779132
 C         1.5941747274        2.0640890151       -6.5769177873
 O         2.3776237438       -0.3335253288       -4.4532968473
 O         3.2751308111        3.4531952357       -5.5405751519
 C         5.2372078794        1.6586937387       -5.5898221058
 C         3.6303231490        0.1189596366       -6.8788131016
 C         0.6846059686        3.2853169774       -6.4720956071
 C        -0.4424719582        2.8412236288       -5.4321930167
 C        -2.0208912004        3.2380347908       -5.5888029251
 C        -2.6059585716        3.8471896454       -4.2478108388
 C        -2.7411182516        5.3931612548       -4.0247660399
 C        -2.3479257906        4.3084008804       -6.7595360305
 C        -2.7621649420        1.8252268438       -5.9940419779
 O        -0.2216807811        2.0843295040       -4.5357961683
 O        -2.8191817805        3.1191076595       -3.2851492946
 C        -2.8412870096        5.6535273193       -2.5836664003
 C        -1.5105604491        5.2303830836       -1.9075207234
 C        -1.5593204218        5.3841225604       -0.3403096364
 C        -1.2087819272        3.9406795549        0.2705405655
 C        -1.4379682188        3.7566900825        1.8213288191
 O        -0.4772901378        4.7934822960       -2.3860729759
 O        -1.0464773504        2.9768214973       -0.4714553318
 C        -0.4981779099        6.4672797886        0.0404990805
 C        -2.9897216328        5.8290234528        0.2692011828
 C        -0.3506007090        4.3418996310        2.7591887193
 C         1.1466220319        3.8127710192        2.3731602515
 C         2.1607085360        3.3589191638        3.4598092268
 C         1.5384025487        2.0176378127        3.9922875883
 C         1.8256369970        1.5995641507        5.4291922397
 C         3.5588109290        2.9866520710        2.8764894482
 C         2.4143576547        4.4415720832        4.4731921324
 O         1.4171132505        3.6970020072        1.2049784313
 O         0.7501232166        1.5206417318        3.2353866891
 C         0.5156032077        0.9983171298        6.0508527686
 C         0.8818198352        0.3702028053        7.4096031268
 C        -0.1938493341       -0.3264338302        8.2156645500
 C        -1.1468860751        0.8759049296        8.6440988704
 C        -0.7618498970        1.6847031944        9.8425405106
 O         2.0117221963        0.4136477458        7.8476649219
 O        -2.1347524130        1.2175067183        8.0430580182
 C        -1.0577137277       -1.2778240328        7.2916667116
 C         0.3758794214       -1.1724611088        9.4078439327
 H        -2.5355359465       -8.3595760380        5.3762544143
 H        -2.5268510326       -9.7580438896        4.2063954022
 H        -1.0768868145       -9.2793694206        5.0693633844
 H        -3.6722712920       -7.8713009263        0.3485802358
 H        -3.6937044039       -7.4386274924        1.9573540823
 H         0.6975038379       -8.3112215483        1.6720206771
 H         0.3967825396      -10.0883167288        1.4722843816
 H         0.3628183561       -9.4205138871        3.0678383877
 H        -3.4061137616       -9.5941796145        2.0300648729
 H        -2.4891111149      -10.3681256130        0.9572203349
 H        -2.0215931654      -10.6181082754        2.5782268743
 H        -4.3269868223       -5.2684930263        0.9000107631
 H        -2.5361894625       -4.9928802355        1.0101987545
 H        -1.7270284186       -4.1857731568       -3.2630668756
 H        -2.3437228935       -2.6007367778       -3.7131464072
 H        -4.2859790172       -3.1820490042       -3.4422536809
 H        -5.3732592449       -4.4438959913       -2.8606775737
 H        -3.9620745514       -5.0191048611       -3.6295482372
 H        -4.2279157490       -2.6458004020        0.0710845242
 H        -5.3028715612       -2.6734457171       -1.2066585694
 H        -5.3111157936       -3.9630019150       -0.0806685068
 H        -0.2100406197       -2.0927955440       -4.0061347217
 H         0.4181094122       -3.0425301310       -2.6015189128
 H         4.1329149328       -0.2590173233       -1.1181978886
 H         3.6077859990       -1.2231788010       -2.4633245083
 H         0.7339768503        0.5977932128        0.4549973486
 H         1.0136217544       -0.8560253350        1.1062418844
 H        -0.4671360523       -0.6755870669        0.3615155812
 H         1.2037874124       -2.9759961419       -0.5880344719
 H         2.5653508597       -2.7154347038       -1.5377550620
 H         2.4235022028       -1.8362795084        0.0373786131
 H         4.2239478426        1.5700454070       -2.9055711796
 H         5.2353564338        0.2023511977       -3.3243877095
 H         1.7151390013        1.9300498198       -7.6976223420
 H         1.0986980507        1.1776071442       -6.0946009183
 H         5.2371424055        2.4133597693       -4.7825268645
 H         5.4042841533        2.1150921876       -6.5140044813
 H         5.9528194092        0.9323599132       -5.3366654381
 H         2.6126657653        0.1579548204       -7.1584796704
 H         4.3565738689        0.3167808655       -7.6945102415
 H         3.7113422449       -0.8794712081       -6.5484026882
 H         0.1857478232        3.3252202496       -7.4065714818
 H         1.3028257919        4.1584167420       -6.2499744942
 H        -1.8888488618        5.9718585192       -4.4333268785
 H        -3.6582831801        5.7453068050       -4.5470823845
 H        -2.3547063832        5.2844030474       -6.2759466563
 H        -3.3148361577        4.3545097807       -7.2000029064
 H        -1.4766743868        4.2587538140       -7.4212520354
 H        -3.6895068692        1.9702055727       -6.5292311802
 H        -2.0867738999        1.2591941273       -6.5822392982
 H        -2.9715517501        1.3296261958       -5.0502595534
 H        -3.0207644461        6.7103074887       -2.4073658546
 H        -3.6499689584        5.1278822680       -2.1056437795
 H        -2.3559908673        4.3187972551        2.0510680407
 H        -1.4655869991        2.6564154804        1.7539753238
 H         0.5296128007        6.2804810618       -0.2842233762
 H        -0.4408662758        6.5596688085        1.0858958687
 H        -0.7161313008        7.4881272329       -0.4225229896
 H        -3.1602286699        5.9943475660        1.2959449536
 H        -3.4233403383        6.7719286621       -0.2891938067
 H        -3.7898589484        5.1596513594       -0.0305828476
 H        -0.6517502101        3.9996952715        3.7455491236
 H        -0.3623671039        5.4007021333        2.7711987352
 H         2.6086983039        0.8990515151        5.3706585824
 H         2.2683350469        2.2980827129        6.0725441505
 H         3.5019354181        2.3758314497        2.0050980681
 H         3.9419859258        2.2662755494        3.5988074546
 H         4.3074317533        3.7764264106        2.7875395281
 H         3.2452676548        4.1461499815        5.0463939713
 H         2.4226206640        5.5250222026        4.1763484687
 H         1.5722958960        4.4448479372        5.1733181008
 H        -0.1147673699        1.8474431211        6.1769083762
 H        -0.0074567028        0.3159774665        5.4222232232
 H        -1.3806763165        2.5838359777        9.7967471223
 H        -0.9428534616        1.1708322237       10.7823090176
 H         0.2742275263        1.9476453596        9.9490960070
 H        -1.7024683140       -1.7787292169        8.0407530852
 H        -0.5622248657       -2.1477490310        6.8024241931
 H        -1.8046978373       -0.6315284287        6.7913088124
 H        -0.4159118564       -1.5686720550       10.0455025434
 H         0.9297458811       -2.0360477271        8.9865143272
 H         0.9830402794       -0.4961673126       10.0086133670
 Na       -0.4754526012        1.7467376444       -2.2942606356
