155

 C        -0.1298131990       -8.6044156984        4.1708804900
 C        -1.3563599268       -8.1588948916        3.3705529776
 C        -1.5573025020       -8.7938299106        1.8586073805
 C        -1.6830177452       -7.4790137095        0.9606550913
 C        -3.0463259926       -6.9987382582        0.5865666095
 C        -0.3232860039       -9.8086571980        1.2850393775
 C        -2.6690611343       -9.7720040861        2.1173638575
 O        -2.1751911335       -7.3323411192        3.7026369116
 O        -0.7117282975       -6.8577554006        0.7046276479
 C        -3.1039982187       -5.5219479893        0.0305026888
 C        -4.2942748852       -5.1270817653       -0.8431333339
 C        -4.4853820254       -3.5251442539       -1.1166341288
 C        -2.9979867332       -2.9895962743       -1.2029431822
 C        -2.0928320899       -3.2961504165       -2.4321932961
 O        -5.0580971206       -5.8954279312       -1.3340602730
 O        -2.5075058689       -2.4531492847       -0.2458733717
 C        -5.4784145393       -3.4867249667       -2.2424803920
 C        -5.0275754336       -2.8294007617        0.1627988548
 C        -0.6297366325       -2.8736897418       -2.2961299818
 C        -0.4340715492       -1.3696155133       -1.8922549964
 C         0.6523958730       -0.8417231860       -0.7864671192
 C         1.5737280939        0.2232153795       -1.6364084676
 C         2.9136791395       -0.1996369345       -2.2374064498
 C        -0.2880873015       -0.2802440260        0.2290799075
 C         1.4974270662       -1.9788888004       -0.2314937630
 O        -1.2064969005       -0.5354707824       -2.3880763318
 O         1.1672039020        1.3194358862       -1.9455824538
 C         3.4770649622        0.7123452403       -3.3564808751
 C         2.8602755815        0.4272615710       -4.6693969906
 C         3.5609521179        1.2261095810       -5.9377252362
 C         2.5600701535        2.3405208066       -6.2195235759
 C         1.3766773405        2.1088416439       -7.1311432985
 O         2.0857607469       -0.4228184520       -4.9177818089
 O         2.6493540153        3.4534516460       -5.7404809183
 C         4.9247148040        1.9593205518       -5.6198191314
 C         3.9475538439        0.1590313816       -7.1324661864
 C         0.1671605029        3.0437343661       -7.0480275485
 C        -0.6121565685        2.8407086954       -5.7669141210
 C        -2.1943177601        3.0374470651       -5.6784075311
 C        -2.4198500583        3.7333143750       -4.2433321423
 C        -2.3360646920        5.2417397165       -4.0852600444
 C        -2.7162402813        3.7875945632       -6.9374550205
 C        -2.6612482103        1.5617846292       -5.5465117490
 O        -0.0320380959        2.5868987203       -4.7349663540
 O        -2.6639608759        3.0195075284       -3.3655992335
 C        -2.2551372271        5.7606748757       -2.6378211573
 C        -1.1780605737        5.0641928480       -1.7183881204
 C        -1.1892867063        5.4323791780       -0.1985998404
 C        -1.1098748793        3.9444300992        0.6819055237
 C        -1.2047822413        3.8534030088        2.2337594426
 O        -0.2728497581        4.4123926052       -2.0992497357
 O        -1.0421124712        2.9320512249        0.0663483147
 C         0.1463174984        6.2135789885        0.0367148391
 C        -2.3408451629        6.2828046269        0.3914722285
 C         0.0893995147        4.3446536091        2.8472587461
 C         1.3132989894        3.6709722661        2.1722734953
 C         2.4707254407        3.0675024311        3.0958686676
 C         1.7644556749        1.8439765395        3.8697164799
 C         1.8286054423        1.7398838996        5.3892594399
 C         3.6718338887        2.6202489668        2.1058266887
 C         2.9361531386        4.1560758437        4.0732989432
 O         1.5315419227        3.7675050220        1.0278039217
 O         1.1088692139        1.0726584036        3.2133479023
 C         1.7755636948        0.2658434459        5.7881478209
 C         1.7671547738        0.1943182742        7.3526869696
 C         0.6002636093       -0.4883329888        8.1147845605
 C        -0.1399861470        0.8255419964        8.6737379011
 C         0.5052076910        1.6154382718        9.9522679026
 O         2.6593382534        0.6763673680        8.0278129171
 O        -1.0489039320        1.2448444787        8.0323137677
 C        -0.4175402994       -1.2106839727        7.2509154889
 C         1.1073009643       -1.4099191168        9.2423795223
 H         0.7754955890       -8.2668051205        3.6060500147
 H        -0.1512936405       -8.0319807620        5.0624678626
 H        -0.2492063186       -9.6715835140        4.3555007755
 H        -3.4473730418       -7.6227554184       -0.2777436834
 H        -3.7278565050       -7.1668247745        1.4414600238
 H         0.5208190884       -9.3113570112        0.8454561189
 H        -0.7904037524      -10.4420310968        0.5106628781
 H         0.0019580707      -10.3950532811        2.1318296006
 H        -3.5457107556       -9.4091712654        2.6636540474
 H        -2.9096435941      -10.3622202856        1.3030256381
 H        -2.2904536834      -10.5167981172        2.7795577288
 H        -3.0234828470       -4.7431886218        0.8706197902
 H        -2.1181538855       -5.4130800692       -0.5845644048
 H        -2.0387850370       -4.3851685526       -2.5877995942
 H        -2.6461387387       -2.9076617564       -3.3351728332
 H        -5.9735732393       -2.5109107776       -2.3743783584
 H        -6.3110369792       -4.1373479749       -2.0561311890
 H        -4.9182305867       -3.5839283993       -3.2100596912
 H        -4.8141462350       -3.4436379087        1.0189819109
 H        -4.7000196112       -1.8109625742        0.3805784599
 H        -6.1281802271       -2.7360102362        0.0564884405
 H        -0.0197453217       -2.9076935696       -3.2122148851
 H        -0.1757357202       -3.5343164741       -1.4882809558
 H         3.6380500266       -0.3364373326       -1.4868590348
 H         2.7696627568       -1.1989937416       -2.6639764112
 H        -0.6417497018        0.6523715930       -0.1357764015
 H         0.0138856357       -0.2481291459        1.2563393623
 H        -1.2534464514       -0.7593297509        0.1814938555
 H         0.8544390959       -2.6839652114        0.2809662428
 H         2.0215044412       -2.5077153566       -1.0255035313
 H         2.2582511033       -1.6187793750        0.5378582363
 H         3.2807427798        1.7713349110       -2.9911859824
 H         4.5034941369        0.5029916543       -3.4856333618
 H         1.7780329072        2.1680883789       -8.2063330456
 H         0.9446126020        1.0679813180       -7.1159213807
 H         4.8560015888        2.6289334437       -4.7284703039
 H         5.2017433734        2.5137392688       -6.5020392890
 H         5.7285214418        1.2108395138       -5.4229716189
 H         3.2680598713        0.2208784577       -7.9309913236
 H         4.8098261444        0.5813728449       -7.5605230312
 H         4.1689292285       -0.8054333428       -6.7019612617
 H        -0.4202304405        2.8404208830       -7.9656754149
 H         0.4292169619        4.0932392188       -7.0607300666
 H        -1.4185888999        5.5876019578       -4.5963805146
 H        -3.1490196630        5.7831204318       -4.6060782413
 H        -1.9266322504        4.3903820169       -7.4565675354
 H        -3.5766982920        4.4711935189       -6.6293957324
 H        -3.1031518056        3.2017533463       -7.7651808618
 H        -3.7589110891        1.6317403915       -5.3954406641
 H        -2.4597304208        0.8959693789       -6.3363548000
 H        -2.2588244079        1.1337875446       -4.6455318185
 H        -2.0895587697        6.8015815132       -2.5087170988
 H        -3.2379980474        5.4907349565       -2.2230303976
 H        -2.1446737766        4.2814066320        2.6142086023
 H        -1.4369047536        2.7920736743        2.4830256060
 H         1.0460423437        5.6234081839       -0.3401526485
 H         0.3166599354        6.5778230983        1.0391122589
 H         0.0960103998        7.0919825395       -0.6042032386
 H        -2.0407196370        6.7923569900        1.3096102391
 H        -2.8003770000        7.0261587130       -0.3545835770
 H        -3.1984234106        5.6260648739        0.6229345179
 H         0.0501094602        4.0330835417        3.8350129592
 H         0.2507859394        5.4304735575        2.8070339714
 H         2.6113241769        2.2106011901        5.9046081891
 H         0.8944884444        2.1505758259        5.6718982232
 H         3.2110259973        2.1365676323        1.2517043344
 H         4.4360272347        2.0440894004        2.5933526971
 H         4.0101930867        3.5325319384        1.5866660592
 H         3.7043997035        3.8696230520        4.8065395635
 H         3.2887980937        4.9570630073        3.4293298011
 H         2.0276424994        4.5371836197        4.5975966197
 H         1.0585371821       -0.3241223926        5.2983605826
 H         2.6775504239       -0.1086928546        5.3807451824
 H         0.2672895551        2.6766187031        9.9832125390
 H         0.1734024627        1.2182911105       10.8739879990
 H         1.5986839923        1.5587410821        9.9130301732
 H        -1.3093355647       -1.5360644146        7.8206693985
 H         0.0419734440       -2.0779243515        6.6594588004
 H        -0.8637015552       -0.5757809072        6.4639574447
 H         0.3330217663       -1.6511077574       10.0131105167
 H         1.3279081629       -2.3685957538        8.8277724335
 H         2.0458974487       -0.9432239641        9.6828494824
 Na       -0.7949243467        2.0211764009       -2.5265539028
