155

 C        -0.1942203933       -7.3206115030        3.2593698431
 C        -1.3113424522       -8.4068255247        3.0504690453
 C        -1.7774814572       -8.6971765248        1.5347912031
 C        -1.8719894583       -7.2316992166        0.7225489887
 C        -3.1300468935       -6.3695163666        1.1963158266
 C        -0.6531070806       -9.4571763379        0.8755020608
 C        -3.0993362627       -9.4661856631        1.5877678072
 O        -1.7751479512       -9.1799140691        3.8351747668
 O        -1.0980772857       -6.8115641659       -0.1121469418
 C        -3.0108582856       -5.0209299469        0.6511401096
 C        -4.3646704702       -4.6567595783       -0.0976130273
 C        -4.7654753501       -3.1241244052       -0.3594267964
 C        -3.5242691141       -2.3940950790       -0.9175315486
 C        -3.1104395692       -2.0770312237       -2.4645088581
 O        -5.2331349719       -5.4587231396       -0.2755763338
 O        -2.6264704748       -2.0551494075       -0.1120637699
 C        -5.9565695982       -2.9380898430       -1.3878365296
 C        -5.3053084880       -2.5915355876        1.0354073159
 C        -1.6098446410       -1.9430496506       -2.6334529060
 C        -0.9778615732       -0.6876941840       -1.9543183967
 C         0.3605249587       -0.7373524905       -1.1110288338
 C         1.4044162438       -0.0024199665       -1.9612050334
 C         2.6867072553       -0.6315153581       -2.3142541105
 C         0.0820357296        0.2039309901        0.2849492094
 C         0.9123451182       -2.0985426819       -0.6494383103
 O        -1.5707338279        0.3517297616       -2.1776889091
 O         1.1617095555        1.1420545372       -2.4829765609
 C         3.4675904128        0.3497579951       -3.1853481557
 C         3.0762926462        0.1601492882       -4.6155336584
 C         3.4663952261        1.3902075295       -5.6982951574
 C         2.1271965251        2.0619853189       -6.2895322789
 C         0.9289613922        1.0514765520       -6.6728626455
 O         2.7216815816       -0.9233412354       -5.1451720734
 O         2.0761827864        3.2490515736       -6.5571193870
 C         4.3738321313        2.5406341636       -5.0741369548
 C         4.2185104805        0.6307277441       -6.7824309825
 C        -0.3978055790        1.8079911974       -6.8207780968
 C        -1.2224681996        2.0599136217       -5.5979229212
 C        -2.6344951042        2.8384454882       -5.6938035743
 C        -2.7322808247        3.6364411984       -4.3044786274
 C        -2.3433082475        5.0787716502       -4.2245441516
 C        -2.8638901406        3.8198232108       -6.9054773286
 C        -3.7599157125        1.7158763860       -5.7371778432
 O        -0.7917017075        1.7127141621       -4.5024743693
 O        -3.0088504293        3.0036413549       -3.3243361381
 C        -2.2318589664        5.5706736592       -2.7137260838
 C        -1.0441794532        4.9818119999       -1.8704721213
 C        -0.9266284686        5.4633876599       -0.3271942897
 C        -1.0769454903        4.1619123186        0.5715465309
 C        -1.0009638583        4.0886568868        2.1036026156
 O        -0.0839414765        4.4439603578       -2.3374499275
 O        -1.4628998789        3.1847848873        0.0194220372
 C         0.4411628551        6.1002294585       -0.1648360325
 C        -2.0729438286        6.4084841326        0.1875476344
 C         0.5104905553        4.2150950183        2.6341828861
 C         1.6404814795        3.2366077309        2.0650629773
 C         2.9084896807        2.7908189909        2.9315190455
 C         2.4407296175        1.4225580823        3.5906964983
 C         2.9899888466        1.0225089561        5.0188676391
 C         4.1038033076        2.6682238970        2.0525957455
 C         3.2457693847        3.8778635846        4.1471573628
 O         1.5629306404        2.8375414449        0.9474284672
 O         1.6418440783        0.7256496333        3.0051129949
 C         1.8241730773        0.4638513702        5.8618288914
 C         2.5067511871       -0.0234261628        7.2160842216
 C         1.4735581896       -0.4508518237        8.3715870356
 C         0.6765536970        0.8282687515        8.8091308894
 C         0.5556413429        1.2349296496       10.2564844126
 O         3.7037456402       -0.1491694444        7.3378011958
 O         0.2265713586        1.5583429122        7.9508305554
 C         0.2945455655       -1.4161972577        7.8734118821
 C         2.2722353991       -1.1004453540        9.4885620883
 H         0.6020399965       -7.6550979577        2.5538599617
 H        -0.6135524612       -6.3292659732        3.0457147688
 H         0.0730743588       -7.3567585918        4.2964358072
 H        -4.1220394653       -6.7027305103        0.8495665193
 H        -3.1252543761       -6.2994193691        2.3161021916
 H        -1.0213560969      -10.0413844822        0.0626671149
 H        -0.0405321005       -9.9910765125        1.5814745968
 H        -0.0296398273       -8.6493617645        0.4878859281
 H        -3.8562749807       -8.6984874501        1.7182971245
 H        -3.2948391232       -9.8990418014        0.6655619135
 H        -3.1004927991      -10.1070277882        2.4526593921
 H        -2.6952613713       -4.2264243592        1.3601343600
 H        -2.2464509657       -5.0931458993       -0.2716858206
 H        -3.5375885879       -2.8401162268       -3.1988645900
 H        -3.4976506024       -1.1013923225       -2.7460606524
 H        -6.2473922260       -1.8660569679       -1.4272411610
 H        -6.7426206580       -3.6903596925       -1.1649643730
 H        -5.6253603118       -3.3622117615       -2.3379414389
 H        -4.5695987936       -2.5507709162        1.8260369525
 H        -5.7380991112       -1.5923934837        0.8442070056
 H        -6.0347128358       -3.3668944851        1.3687645570
 H        -1.3402634957       -1.9021194189       -3.7015008018
 H        -0.9765488601       -2.8193220351       -2.2877491798
 H         3.1448047562       -1.1325824682       -1.4551197321
 H         2.4145956207       -1.4137695581       -2.9773895357
 H        -0.0322764726       -0.3886069609        1.1620170767
 H        -0.8474270713        0.7544942880        0.2467817337
 H         0.9562480532        0.8112440028        0.3474245143
 H         0.1526896147       -2.5523082008        0.0497985471
 H         1.2543374142       -2.8073230418       -1.4077225586
 H         1.6791238635       -1.9899117600        0.1006705474
 H         3.2158768042        1.3347467272       -2.9153323393
 H         4.6033372475        0.3163466334       -3.1893668402
 H         1.2225753557        0.8137091884       -7.7119125498
 H         1.0587653306        0.1268053515       -6.0438819041
 H         3.8205752170        3.1879191036       -4.3584455427
 H         4.6995375986        3.2614707140       -5.8511032388
 H         5.3943145321        2.2020428008       -4.7110986347
 H         3.6308415266        0.1558177955       -7.5544146989
 H         5.0113323331        1.1965710635       -7.1611287187
 H         4.7504041182       -0.2390721305       -6.3621896520
 H        -0.8899436539        1.5126322242       -7.7486845016
 H        -0.0186164011        2.8201879324       -7.0837783424
 H        -1.4060983166        5.3234154637       -4.7534358057
 H        -3.0749507465        5.7622784560       -4.7132820798
 H        -2.0422935216        4.6261579933       -6.8549359432
 H        -3.9122164778        4.3367931170       -6.7694769025
 H        -2.9885735482        3.3555966057       -7.8848180672
 H        -4.8010554166        1.9886383201       -6.0766099605
 H        -3.3658212150        1.0423455239       -6.5284745959
 H        -3.7493424568        1.1092280418       -4.8493974104
 H        -2.0349797702        6.6454039566       -2.5976503944
 H        -3.1364908518        5.3607628581       -2.2103385369
 H        -1.5801812129        4.9853191162        2.4804847489
 H        -1.3658732462        3.1476946679        2.4529875491
 H         1.1533741306        5.2742404609       -0.4811388090
 H         0.7007242393        6.4864820376        0.8496427078
 H         0.5443287430        6.8820544359       -0.8416038227
 H        -1.8203064650        6.6579147671        1.2180688930
 H        -2.0398589554        7.2989778750       -0.4117924995
 H        -2.9579572590        5.7912537396        0.2886651326
 H         0.5062543026        4.3136161428        3.7520338867
 H         0.8580538996        5.1938774291        2.3619234544
 H         3.6084315613        0.1891662120        4.7845392485
 H         3.6660950848        1.7070475903        5.4363959075
 H         3.9893581340        1.7061736150        1.4958950169
 H         5.0114228484        2.6185072365        2.6840801488
 H         4.2155962874        3.5948641897        1.4544790891
 H         4.2058335471        3.6718800174        4.6834085794
 H         3.4550476496        4.7854936481        3.6420535902
 H         2.3861872633        3.9367050330        4.8167302019
 H         1.1855459047        1.2816687928        6.0830959690
 H         1.3135855144       -0.3092460233        5.3720208379
 H         0.3833098073        2.3085842968       10.2013050319
 H        -0.3563522009        0.7537946401       10.6307958741
 H         1.3759486403        0.9652990873       10.9549151508
 H        -0.3649485861       -1.7396903384        8.7009440547
 H         0.6966359992       -2.2932605683        7.3581241239
 H        -0.3926416356       -0.9952106788        7.1324132179
 H         1.6195830901       -1.3092695697       10.3447782539
 H         2.8762215271       -1.9157180819        9.1294029566
 H         3.0867073133       -0.3893789929        9.7632126764
 Na       -0.8325726894        2.3242226854       -2.2860906772
