155

 C        -0.4398867356       -6.9578792677        3.2006632356
 C        -1.2434557523       -8.3887950213        2.9185931643
 C        -1.6789825696       -8.6196281189        1.4989388387
 C        -2.1215619655       -7.2250345735        0.8114550622
 C        -3.2983860006       -6.3632464496        1.4105402390
 C        -0.7294155510       -9.3365500293        0.4454466385
 C        -3.1360919100       -9.5399855552        1.4435363512
 O        -1.5015667657       -9.2433684854        3.7435956516
 O        -1.2980484033       -6.8630067565       -0.0200256378
 C        -3.1766906918       -4.9653175840        0.7177988570
 C        -4.4345084126       -4.6006590588       -0.0501351859
 C        -4.6744566290       -3.0002281444       -0.2506278981
 C        -3.3323195602       -2.2792210730       -0.7305843994
 C        -3.2049230953       -2.1688973179       -2.2110175237
 O        -5.3697603208       -5.3458805487       -0.3084435314
 O        -2.4952362353       -1.9481173738        0.0586217460
 C        -5.8613905119       -3.0046957238       -1.2419224804
 C        -4.9204375295       -2.3387936785        1.1669534630
 C        -1.6933473015       -2.1389856736       -2.5724021402
 C        -1.1965491339       -0.8625886711       -1.8739870062
 C         0.1929916638       -0.8053903081       -1.1491192803
 C         1.2375607966        0.0915064086       -2.0396474699
 C         2.7121277518       -0.5116644694       -2.2486320828
 C        -0.0217548558       -0.0310962636        0.1994579222
 C         0.7255756119       -2.2867402507       -0.8129441303
 O        -1.8527954256        0.1499120396       -2.0181305971
 O         1.0468055822        1.1500995113       -2.4755316495
 C         3.6563393415        0.2219626296       -3.1994885702
 C         3.0142287180        0.1129902251       -4.7429026494
 C         3.3021259474        1.3394277980       -5.6835794108
 C         1.9562479130        1.9146183199       -6.2934205589
 C         0.7305843824        0.9028496103       -6.7877600643
 O         2.5400870819       -0.9504042662       -5.0703539004
 O         1.9286414999        3.0878518514       -6.4803634136
 C         3.9104843203        2.5074341409       -4.9905351124
 C         4.1763400355        0.8131036392       -6.8829541936
 C        -0.4772314278        1.9024044478       -6.9562930234
 C        -1.1777892347        2.0689902013       -5.6547304738
 C        -2.5360567908        2.8733047214       -5.6025084435
 C        -2.6124102087        3.6021020394       -4.1910275422
 C        -2.2683138801        5.1096066601       -4.1041595062
 C        -2.6031285739        3.8595544701       -6.8441856905
 C        -3.7442881056        1.8852302884       -5.7779980513
 O        -0.7965503751        1.4807817613       -4.6820571785
 O        -2.8940865092        2.8895005940       -3.1989449314
 C        -2.2134401006        5.8239269297       -2.7803792085
 C        -1.0013210832        5.2149996643       -1.9168891231
 C        -0.7912554591        5.4430844216       -0.4072445403
 C        -0.7578072071        4.0848776221        0.4229791048
 C        -0.7054854772        4.2142110783        1.9747522822
 O        -0.2236838248        4.5064057998       -2.5443641265
 O        -1.3332472312        3.0744119393        0.0283148221
 C         0.5829489083        6.2118183669       -0.1279516300
 C        -1.9273042437        6.3761983094        0.1316095412
 C         0.5988708527        4.2145478713        2.7401045373
 C         1.6323840273        3.2850576146        2.1369401202
 C         2.8233461375        2.7979999242        3.0480755152
 C         2.4581063234        1.3085990424        3.5101760056
 C         3.0441630733        0.7951321907        4.7753066210
 C         4.0626086877        2.6241401389        2.0085257999
 C         3.1040882193        3.8137695619        4.1373487400
 O         1.4139107422        2.8460539425        1.0118892034
 O         1.6116239092        0.6639380185        2.9178402693
 C         1.9574800131        0.5861198197        5.7692499429
 C         2.6135121455       -0.0106629968        7.0597441523
 C         1.6424563062       -0.3141288673        8.3656542705
 C         0.7835559677        0.8641890248        8.8053268034
 C         0.6088644194        1.1507251833       10.3026574655
 O         3.7719251452       -0.2838516116        7.1205352082
 O         0.3183259288        1.6739718895        8.0199821391
 C         0.6436676064       -1.3927955720        7.9892339937
 C         2.6281794892       -0.9319855888        9.4106398830
 H         0.5014052145       -7.0627120138        2.7500456746
 H        -1.0495583380       -6.1774355569        2.7630239534
 H        -0.4491811053       -6.7740153036        4.2793623302
 H        -4.2320423032       -6.8235628805        1.0201979470
 H        -3.3549931469       -6.4052204181        2.4801795023
 H        -1.3458265699       -9.9960014457       -0.1832051959
 H         0.0927971371       -9.8280957989        0.9520726164
 H        -0.3019501445       -8.5613626000       -0.1883230479
 H        -3.8129933433       -9.4063636662        2.2687715905
 H        -3.5427188733       -9.2064586934        0.4371853704
 H        -2.8190023030      -10.5879124967        1.3610468457
 H        -3.0642937649       -4.1370840435        1.4171915539
 H        -2.4150543308       -4.9184646494        0.0321463051
 H        -3.6776415922       -2.9915432162       -2.6886527768
 H        -3.7134094042       -1.2438840620       -2.6038725357
 H        -5.9671395702       -1.9637395438       -1.4965131854
 H        -6.7051054745       -3.3193436568       -0.6196915614
 H        -5.7934626483       -3.6626981970       -2.0940951139
 H        -3.9232089456       -2.2090429146        1.6427427746
 H        -5.3732486651       -1.4001065291        0.9638993352
 H        -5.4453336831       -2.9568546892        1.8369410395
 H        -1.6383164662       -2.1085635395       -3.6772650525
 H        -1.0920532446       -2.9473784902       -2.2545722595
 H         3.1653147905       -0.7161887504       -1.2696587056
 H         2.7655953079       -1.5248996903       -2.7772008307
 H        -0.6884442909       -0.6906258047        0.8261624274
 H        -0.6471266945        0.8077890810       -0.0089671598
 H         0.9511426923        0.2624635799        0.6882208291
 H         0.1139398088       -2.8065986451       -0.1334390188
 H         0.8618213585       -2.8279165567       -1.7267673835
 H         1.6740583755       -2.2872886877       -0.3162609946
 H         3.9701356853        1.2353177649       -2.8129293440
 H         4.5497492895       -0.3372545700       -3.1579415494
 H         1.0581046648        0.5123207969       -7.7510588868
 H         0.6297801747        0.1334958060       -6.0796647763
 H         3.3766816826        2.7793694875       -4.1231357289
 H         4.0463011386        3.3933055480       -5.6037733477
 H         4.8971527373        2.2330441541       -4.7738489904
 H         3.8115756275       -0.1196756999       -7.2837906945
 H         4.3105480928        1.5612640596       -7.7075507761
 H         5.1706521356        0.5867118287       -6.6114438677
 H        -1.1888497007        1.4685547845       -7.7079821662
 H        -0.0400451530        2.8004260927       -7.4759253537
 H        -1.3435172143        5.4094999070       -4.6060323131
 H        -3.0378068788        5.6384196414       -4.6730193901
 H        -1.9217845405        4.6836197322       -6.7990079105
 H        -3.5790055177        4.0293411728       -7.2126957554
 H        -2.2690421449        3.2301619625       -7.6492053583
 H        -4.6189284187        2.4210470499       -5.6134626822
 H        -3.9261463159        1.3484562298       -6.6980629486
 H        -3.5829833762        1.2124844586       -4.9385030310
 H        -2.0249147980        6.9061057076       -2.9180445194
 H        -3.1856489343        5.6948704374       -2.1845829717
 H        -1.2567899030        5.0774073266        2.1978798864
 H        -1.2096700869        3.2961782398        2.3527391490
 H         1.4202892242        5.6454869941       -0.4058570185
 H         0.5235637161        6.3553959753        0.9250871642
 H         0.7136982010        7.2395938691       -0.6173832316
 H        -1.7499763502        6.7621289338        1.1225297183
 H        -1.9674219248        7.1104872952       -0.6187079522
 H        -2.7365188486        5.6902442089        0.3245605628
 H         0.4733482656        4.0699593793        3.8055123059
 H         0.9267950052        5.3167522184        2.7956476479
 H         3.6495933441       -0.1538641567        4.7185833209
 H         3.7863608787        1.5946452079        5.0899366657
 H         3.7774096708        1.7562528163        1.4604580125
 H         5.0188673998        2.5515981299        2.4993370480
 H         4.1600357492        3.4679395789        1.3637441387
 H         4.1101858566        3.6787508622        4.4565390959
 H         3.0383501537        4.8935016028        3.8603677202
 H         2.5060439015        3.4313749162        4.9501760578
 H         1.3736240357        1.5045370722        5.9909318088
 H         1.3139989841       -0.2797740690        5.4499007420
 H         0.9948929850        2.1324564651       10.4705316167
 H        -0.3869763093        1.0464132902       10.6976311581
 H         1.1792505894        0.4484642661       10.8441621696
 H        -0.0166688631       -1.6360456234        8.8370379391
 H         1.1276688195       -2.2591055656        7.4715413674
 H        -0.1207900624       -1.0622675909        7.2521433575
 H         2.0855608311       -1.3402853073       10.2592794891
 H         3.1272679495       -1.7767361203        8.8840286613
 H         3.4815626215       -0.3434416495        9.6397710720
 Na       -0.8761599885        2.3454878700       -1.9496875249
