155

 C         3.8269904436       -1.2516645416       11.0574624341
 C         3.8998761883        0.0783824112       10.3832037065
 C         5.1267667670        0.5749608150        9.5094816210
 C         5.1509232780       -0.2408332669        8.1544780318
 C         4.8183321016        0.4879445266        6.8543173896
 C         5.1339609939        2.1387135961        9.5378948868
 C         6.4404843981        0.0796086169       10.2646412577
 O         2.9871928501        0.8940408625       10.5120145118
 O         5.3280211580       -1.4435884995        8.2170602132
 C         4.0771879841       -0.3675508919        5.7840321002
 C         4.3034350369        0.0815105077        4.3417088776
 C         3.3520980765       -0.4956868386        3.2414783452
 C         1.8558138309       -0.6085675781        3.7728803069
 C         1.3127408893       -1.9988763639        4.0905780518
 O         5.1767302903        0.8330787865        3.9742929330
 O         1.2011075531        0.4187630748        3.8888629776
 C         3.3562219794        0.5079443938        2.0991692720
 C         3.9567119734       -1.8654447431        2.7237466536
 C        -0.1753397355       -1.9895811238        4.3618247419
 C        -1.0790271050       -2.2232109037        3.0210975243
 C        -2.4294941302       -2.9562285817        3.1307135832
 C        -3.4658504480       -1.8274426669        2.7822901153
 C        -4.5942302630       -1.3575389636        3.7443818511
 C        -2.4196074179       -4.0590458902        1.9818991486
 C        -2.6390574943       -3.6202283149        4.4354217315
 O        -0.6374092645       -1.9253409948        1.9074851150
 O        -3.5013102766       -1.2854091917        1.6835368737
 C        -4.7486031773        0.1264997255        3.7706124439
 C        -3.6500929055        0.8905563691        4.4898092215
 C        -3.7874959146        2.3922115027        4.8584738964
 C        -2.8610806886        3.1410959385        3.8080689001
 C        -1.3368920009        2.8185297334        3.8464235257
 O        -2.6054020320        0.2873881032        4.7125968768
 O        -3.3382849520        3.9027269998        3.0343936715
 C        -5.3408050642        2.9355973486        4.8017963378
 C        -3.2783301309        2.6057553788        6.3681786583
 C        -0.6105013433        3.2775071394        2.5523755333
 C        -0.9931046288        2.3809431564        1.3941043857
 C        -0.4777709961        2.6893692634       -0.0296695387
 C        -0.2911816369        1.4490586850       -1.0414739672
 C        -0.7403865341        1.5439897960       -2.5340713405
 C        -1.4277504740        3.9031165015       -0.5499417346
 C         0.9764955880        3.3405662730       -0.1540162901
 O        -1.8059136105        1.4459436268        1.6032597377
 O         0.2107767688        0.4531361069       -0.5636059805
 C        -0.8081269869        0.2000632651       -3.2987847066
 C        -2.0242605877       -0.7115834976       -2.9775690466
 C        -3.2572506934       -0.8765721301       -4.0267126200
 C        -2.5489693394       -1.8453682534       -5.1003868624
 C        -3.2592502186       -3.1422580135       -5.7076712374
 O        -2.0008032065       -1.4238499615       -1.9921702507
 O        -1.4775421538       -1.5360035938       -5.5471771284
 C        -4.4961031005       -1.6710065404       -3.3850059615
 C        -3.7208285009        0.4223063244       -4.8377361001
 C        -4.1789804671       -2.8370785101       -6.9344702160
 C        -3.3770446334       -2.7181025435       -8.1952486174
 C        -3.4531666775       -1.4470660502       -9.1905046562
 C        -2.2235852246       -0.4934328994       -8.8661546471
 C        -0.8472272698       -1.0430411200       -9.2375394225
 C        -3.4763139845       -1.9711342681      -10.6724697031
 C        -4.6811468638       -0.5655638271       -8.8665919252
 O        -2.7352502576       -3.7273299483       -8.5072623431
 O        -2.3817943404        0.6156450959       -8.3936907327
 C         0.3678189460       -0.2464835736       -8.5730078686
 C         1.4383096406        0.2899722244       -9.4753346185
 C         2.7870014997        0.7578189549       -8.7374907066
 C         2.2362673479        2.0091516208       -7.8790571119
 C         2.1830110549        3.3291749543       -8.6219518246
 O         1.2619009300        0.5900423091      -10.6230265419
 O         1.7792070663        1.8738651065       -6.7551052671
 C         3.4380527400       -0.2387281198       -7.8370676022
 C         3.7872825290        1.2719588590       -9.8004928232
 H         4.8009561996       -1.5892106290       11.4442417096
 H         3.1570881203       -1.2797129723       11.9747801088
 H         3.5274226265       -1.9675664443       10.3093547570
 H         4.3954650845        1.4712617793        6.9287540978
 H         5.7034876530        0.8108488729        6.3077994823
 H         5.4087473021        2.3926693679       10.5528852570
 H         4.0955885337        2.3835384336        9.3957596511
 H         5.7562084038        2.6615239178        8.9184601603
 H         6.7391886985       -1.0253992606       10.1751500812
 H         7.4018392915        0.4399520052        9.8875377275
 H         6.3606359695        0.2402153026       11.3190998650
 H         4.5468839826       -1.4376155539        5.8954182946
 H         3.0952178566       -0.4909054377        5.9860354018
 H         1.5234943840       -2.6272310659        3.1744157937
 H         1.9015526634       -2.4049812628        4.8770522907
 H         2.8097547479        1.4455526667        2.3406930160
 H         3.0323199854       -0.0457032972        1.2235193020
 H         4.4391761183        0.7121210065        1.9496868910
 H         4.4908741578       -2.4688169100        3.5208294702
 H         3.2936620308       -2.5676542465        2.1473719237
 H         4.7730477396       -1.6702663810        1.9917215843
 H        -0.4202202544       -1.0488418619        4.8108482641
 H        -0.4816773675       -2.7493678118        5.0616869596
 H        -5.5936597946       -1.8535042317        3.3787025462
 H        -4.4704427170       -1.6443816637        4.8010271388
 H        -2.3923313094       -3.7376516528        0.9618552062
 H        -3.2435224675       -4.7880838722        2.0807836175
 H        -1.4785325181       -4.4533174106        2.0298290963
 H        -1.9725399383       -4.4889178946        4.4721558776
 H        -2.3906231756       -2.9729346846        5.3167383526
 H        -3.7123221909       -3.8634494428        4.6050725524
 H        -4.7161372288        0.4766450004        2.7361266408
 H        -5.7359839858        0.4477771743        4.0338663580
 H        -0.9301286465        3.1663758205        4.8428101679
 H        -1.2203185477        1.7317779087        3.9196113434
 H        -5.8472047233        2.3863402447        5.5715339302
 H        -5.6161168999        2.8354042264        3.7490955256
 H        -5.4949026444        3.9905422143        5.0638834599
 H        -2.5512973097        3.4611961220        6.4200020171
 H        -4.0371913720        2.8834314844        7.0901744472
 H        -2.9422592004        1.6365036501        6.6278514596
 H         0.5055458345        3.1166716199        2.6668552910
 H        -0.8448919435        4.2857330911        2.5010745807
 H        -1.7579643298        1.9476053596       -2.3851254199
 H        -0.2252800558        2.3029143527       -3.1341739516
 H        -1.2975727725        4.7864773112       -0.0038857511
 H        -2.4752502453        3.6811594076       -0.4974406948
 H        -1.1109392652        4.1816654067       -1.5407919915
 H         1.0723428226        4.1946289780        0.5262517429
 H         1.8396481789        2.7605891440       -0.0334004509
 H         1.1221512792        3.8614827482       -1.0805475269
 H        -0.6563204639        0.3319822554       -4.3836098026
 H         0.0265788074       -0.3558063787       -2.8038691184
 H        -2.4607026829       -3.7541748591       -6.0044075896
 H        -3.8256749675       -3.6989831576       -4.9358679205
 H        -5.1686750382       -1.7920439670       -4.1412955724
 H        -4.8239154888       -1.0620014156       -2.5273552687
 H        -4.2403453641       -2.6481179503       -3.0301172398
 H        -4.0729380604        1.2841745188       -4.2199796890
 H        -2.8279860911        0.7227410286       -5.4113681314
 H        -4.4952999242        0.2697831875       -5.5403359322
 H        -4.8453537471       -2.0393057183       -6.6272525303
 H        -4.9578215404       -3.6757477115       -7.0837175208
 H        -0.8408514727       -2.0959548401       -9.1379500287
 H        -0.8325770782       -1.0658749841      -10.3525946621
 H        -3.7649581823       -1.2631095005      -11.3891602905
 H        -4.1499082875       -2.7816090325      -10.7958731794
 H        -2.5440681888       -2.3845182906      -11.0042122728
 H        -5.6035098543       -1.1467484289       -8.9879093718
 H        -4.6454533530       -0.1251609368       -7.9324185716
 H        -4.8440494658        0.2692388891       -9.5759472078
 H        -0.0071493503        0.5670550323       -7.9126978668
 H         0.8495903601       -0.9148940357       -7.8925960807
 H         1.8191306592        3.2466064775       -9.6251469739
 H         1.7513138122        4.1905532062       -8.1413256326
 H         3.2602586294        3.5835493522       -8.7588187651
 H         3.7506721675       -1.0352513873       -8.4848364891
 H         2.7388992212       -0.6469692527       -7.1573299180
 H         4.3077879755        0.0621062270       -7.2470510019
 H         4.4264082526        0.5028047900      -10.2160439398
 H         3.2876103096        1.7123034945      -10.6666536530
 H         4.4318627455        2.0467856968       -9.4373104436
 Na       -1.8149564383       -0.7911526048        0.1835234952
