155

 C        -0.1926851746       -7.0733673059        2.9130019198
 C        -1.0577064255       -8.2834233897        2.5450311357
 C        -1.7632949188       -8.3781140720        1.1477515734
 C        -2.4533218914       -7.0061375780        0.9141684079
 C        -3.9357355476       -6.6732021090        1.2603340013
 C        -0.8446951453       -8.8890860363        0.0545529858
 C        -2.8545650658       -9.5002439281        1.3814698904
 O        -1.1261758379       -9.2671737958        3.2620673668
 O        -1.9854147920       -6.1823206624        0.1690302241
 C        -4.0462697997       -5.1180255088        1.4184513552
 C        -4.8343436167       -4.3594192363        0.3587912907
 C        -4.6044853465       -2.8260874487        0.2392119552
 C        -3.3034775445       -2.5958447786       -0.4740078214
 C        -3.3239364333       -2.7368006428       -1.9637702457
 O        -5.5506186820       -5.0028881532       -0.3815751912
 O        -2.2406014375       -2.4365199541        0.1218261268
 C        -5.8875560563       -2.0634915602       -0.3956212730
 C        -4.5599206820       -2.0824399245        1.5813296569
 C        -1.9019531894       -2.5794587842       -2.4353378865
 C        -1.3239628158       -1.2470582231       -1.8409900655
 C         0.0469162960       -1.3115837608       -1.0765940107
 C         1.1115175779       -0.4763948642       -1.9678267148
 C         2.5252157340       -1.0239856641       -2.3150922419
 C         0.0170980231       -0.4862518203        0.2876993575
 C         0.5451977820       -2.7336925430       -0.9661235748
 O        -1.8598207781       -0.2196232677       -2.0069743421
 O         0.7405875994        0.6015899724       -2.3377750125
 C         3.2521986145        0.0498076056       -3.2453395884
 C         2.7022285138        0.0660123411       -4.7321707426
 C         2.9741428064        1.3744234750       -5.7327347872
 C         1.4955223005        1.8679820469       -6.1484900765
 C         0.5591399928        0.8495457198       -7.0263173150
 O         2.0178621776       -0.8348765354       -5.0871607698
 O         1.0574282120        2.9914322571       -5.9434673338
 C         3.7137393754        2.5907887496       -5.1401831847
 C         3.6744675829        0.8340734158       -6.9664974459
 C        -0.9287880822        1.3310867735       -6.9859608787
 C        -1.2916460529        2.0101796090       -5.6295014280
 C        -2.5073146935        3.0547741876       -5.6963745566
 C        -2.5705562167        3.8111636948       -4.2557013723
 C        -1.9760042141        5.2264085509       -4.3553091856
 C        -2.3477088124        4.1885279306       -6.8299696850
 C        -3.8377711215        2.3745655635       -5.8887556911
 O        -0.7951371146        1.6790123398       -4.5457482489
 O        -3.0039058096        3.3497090830       -3.2687841582
 C        -1.8128470352        5.9767677081       -2.9746184966
 C        -0.8546937575        5.2737594137       -1.9743789199
 C        -0.5956467688        5.6411650430       -0.3453204185
 C        -0.8025073411        4.2996752910        0.4675846014
 C        -0.7839358147        4.2131380542        2.0242289251
 O        -0.1351029631        4.3877506087       -2.3775698832
 O        -1.3607219753        3.3577848043       -0.1168977348
 C         0.9507972118        6.1584500120       -0.2830301361
 C        -1.5251617614        6.7611975426        0.2164569924
 C         0.6267712090        4.3176733686        2.7968948345
 C         1.6779872829        3.3550157659        2.0413219734
 C         2.8142831624        2.6783506953        2.9617965702
 C         2.3691998628        1.1762088659        3.3137684536
 C         3.0437829023        0.4097061624        4.4772236963
 C         4.1701859130        2.4913733054        2.1734672589
 C         3.1322849115        3.5096472168        4.2060499145
 O         1.7762942043        3.3334245791        0.8282553760
 O         1.4150840663        0.7000580700        2.7275392029
 C         2.3494098274        0.7420552750        5.8055494636
 C         3.0296365696        0.0236832269        6.9662589999
 C         2.3280157943       -0.2455058833        8.2661426903
 C         1.4350840617        0.9128469899        8.8035002935
 C         0.9541988415        1.0596928942       10.2647728617
 O         4.2193005245       -0.2953190262        6.8705147396
 O         1.0635975725        1.7540777364        7.9928953748
 C         1.3031498743       -1.3477462880        8.0873692169
 C         3.3769623883       -0.6213959194        9.3099339382
 H         0.0717357634       -6.4250627605        2.0505171306
 H        -0.8823300045       -6.5731596244        3.5065014173
 H         0.6880722858       -7.4363970083        3.4284591043
 H        -4.5874664740       -7.0340559926        0.5149120392
 H        -4.2437765198       -7.2535858653        2.1466601803
 H        -1.4619880698       -9.1055223356       -0.8201118707
 H        -0.3614532249       -9.8532921642        0.3350172231
 H        -0.1395994002       -8.1031762919       -0.1996672315
 H        -3.8714660438       -9.0446514500        1.6218332864
 H        -2.8732227311      -10.0651710750        0.4595916062
 H        -2.4892061749      -10.1359830185        2.2063540057
 H        -4.2949121736       -4.7772131301        2.3544173307
 H        -3.0492888561       -4.6629807403        1.3235024622
 H        -3.6854404622       -3.7823967075       -2.0021304447
 H        -3.9810481224       -2.1497788667       -2.5068262405
 H        -5.6777637033       -1.0352009045       -0.5386919562
 H        -6.7017830481       -2.1646180943        0.2545893765
 H        -5.9522274512       -2.4482670248       -1.4726488759
 H        -3.5858527791       -2.1859749802        1.9518427652
 H        -4.7196906194       -1.0357765331        1.3950912748
 H        -5.3840211140       -2.4598259864        2.1863270271
 H        -1.9050750720       -2.3732873652       -3.4642212978
 H        -1.2750642702       -3.4334109575       -2.1581788554
 H         3.0554446236       -1.4262775328       -1.4086275270
 H         2.3624806619       -1.8843846364       -2.9378483056
 H        -0.1528994620       -1.2377257944        1.0569877637
 H        -0.6760065739        0.4289942229        0.2311542170
 H         1.0211000105       -0.1577397370        0.4971724635
 H        -0.2110087096       -3.3579898642       -0.6435304600
 H         0.9146881432       -3.1018107497       -1.8758690901
 H         1.4254232983       -2.6820386999       -0.2962512906
 H         3.3061624498        1.0341725754       -2.8261557640
 H         4.3498870256       -0.1636035658       -3.3707925464
 H         0.8748119903        0.6408911272       -8.0431699705
 H         0.7863348992       -0.0565082544       -6.4325580449
 H         3.2435197496        2.9349104516       -4.2292053178
 H         3.6999621156        3.3364275969       -5.8439586578
 H         4.6781066913        2.3372239317       -4.8406980600
 H         3.1149915535        0.6759716955       -7.8684756596
 H         4.4783628959        1.4085460061       -7.4291058684
 H         4.1359747838       -0.1223685744       -6.6495660159
 H        -1.5915088412        0.5397828502       -7.3000505782
 H        -0.9375382284        2.0077127857       -7.7874297865
 H        -1.0076712330        5.2326894821       -4.8061270766
 H        -2.5361437068        5.9346259755       -4.9586006804
 H        -1.3280247417        4.4415648478       -6.9818589134
 H        -2.9297294465        4.9912844127       -6.5605726359
 H        -2.6502257820        3.8230064015       -7.8483639752
 H        -4.6890658281        3.0461903494       -6.0985421408
 H        -3.6230805355        1.7878729676       -6.7274668812
 H        -4.1759606246        1.6950767436       -5.1214009487
 H        -1.3295021803        6.9519541838       -3.1962558267
 H        -2.6795887856        6.2053401357       -2.4081559340
 H        -1.5429728629        4.9313495443        2.4544339133
 H        -1.1586057027        3.2685107346        2.3621972678
 H         1.6981441837        5.3683564816       -0.4921545300
 H         1.1417498077        6.6900930058        0.6467220092
 H         1.0005718382        6.8885450828       -1.0895445404
 H        -1.1993858209        6.8502052718        1.2118650754
 H        -1.4169280966        7.7620337911       -0.3543700501
 H        -2.4914708075        6.3903203833       -0.0541428472
 H         0.5003135473        4.0667669942        3.8892923848
 H         0.9637814937        5.3428516711        2.8182409257
 H         2.9650603386       -0.6414453152        4.1052910589
 H         4.1122557169        0.7261191222        4.4940785124
 H         4.0315797136        1.6417311477        1.5517586149
 H         4.8334310749        2.1474287493        2.9068196649
 H         4.5647065403        3.2597500067        1.5066466105
 H         4.0709706029        3.2752665774        4.7216599349
 H         3.0788926332        4.5131596720        3.8766326185
 H         2.3250116957        3.5110002524        4.9909896585
 H         2.1735923097        1.8356295778        6.1259219646
 H         1.2748487632        0.3577372287        5.7451393954
 H         1.4658342069        0.3688070575       10.9487132098
 H         1.1429067459        2.0521520398       10.5928516643
 H        -0.1208351451        0.8957717469       10.3439101616
 H         0.8168394442       -1.6727468268        9.0425434070
 H         1.9263684468       -2.2406665568        7.8168241765
 H         0.5317580618       -1.1713966839        7.3234801670
 H         2.9929612337       -0.7472663324       10.3380267941
 H         3.6842133957       -1.5840454976        9.0809656584
 H         4.1972637916        0.1174042130        9.3143643422
 Na       -0.9701646039        2.1637166752       -2.0328506280
