155

 C        -0.2012617584       -7.0247696447        2.4885006155
 C        -1.1093086932       -8.2532233218        2.3802055308
 C        -1.9729157986       -8.3362905678        1.0821517080
 C        -2.6273016465       -6.9548891154        0.9465194225
 C        -3.9798063696       -6.6273805552        1.4870176615
 C        -0.8723360126       -8.4759453769       -0.0246640372
 C        -2.9681987091       -9.6221769087        1.0123998145
 O        -1.0807187496       -9.0617490534        3.2253121586
 O        -1.8987637873       -6.1048636579        0.4399219929
 C        -4.3636275446       -5.1316821136        1.6398985661
 C        -5.0562556581       -4.3293186890        0.5559845856
 C        -4.7427320532       -2.8129091189        0.4960815514
 C        -3.4098111155       -2.6843939209       -0.3968586946
 C        -3.3605747997       -2.5933049171       -1.9156990911
 O        -5.5973311551       -4.9160557709       -0.3185114438
 O        -2.3334221045       -2.6645574369        0.1796624839
 C        -5.8070549406       -2.1122460065       -0.3248756583
 C        -4.5237422951       -2.3642878063        1.9824930410
 C        -1.9059668681       -2.5954087293       -2.4586644229
 C        -1.1306515028       -1.4143129472       -1.8946472862
 C         0.1863025076       -1.3707536685       -1.1670312611
 C         1.1158427614       -0.4492476844       -2.0365389004
 C         2.5282424864       -0.9431220186       -2.4608838798
 C         0.0339634647       -0.7041420170        0.1165731448
 C         0.8135962009       -2.7375402521       -0.7944866843
 O        -1.7790736249       -0.3287151950       -2.0547613578
 O         0.7989134135        0.7033487147       -2.3670485726
 C         3.1816756452        0.0245893644       -3.4173806599
 C         2.5007522957        0.0204713062       -4.7811766762
 C         2.8091085829        1.2333153321       -5.7383899819
 C         1.4128640244        1.7948570790       -6.1661800546
 C         0.3335018514        0.8551823759       -6.9216681696
 O         1.8338011787       -0.9938073143       -5.1319243522
 O         1.1416417150        2.9352133441       -5.8084312977
 C         3.5313587375        2.3412157887       -4.9094573273
 C         3.5655757528        0.8335574806       -6.9853794517
 C        -1.0757090028        1.5274142315       -6.9434196598
 C        -1.4546049997        2.0659957850       -5.5508750768
 C        -2.5004321518        3.3339565523       -5.6654081065
 C        -2.5189579809        4.0780043344       -4.3041241985
 C        -1.7627994484        5.4042712225       -4.2199046743
 C        -2.2640482892        4.2385517401       -6.8969978837
 C        -3.8001140060        2.4879291342       -5.8471593435
 O        -1.1950453826        1.6689431397       -4.4592838144
 O        -2.9883206184        3.5331831661       -3.2562625747
 C        -1.6772413819        5.9779662503       -2.8014250029
 C        -0.6198983633        5.1232713808       -1.9396690058
 C        -0.5124018162        5.4719483958       -0.4556191445
 C        -0.8173107144        4.2079439375        0.4197964309
 C        -0.7176749280        4.3552697289        1.9979012681
 O         0.1097977255        4.2960384370       -2.4734119337
 O        -1.3892460791        3.2446842772       -0.0110120612
 C         0.9709813595        5.9966171053       -0.3635898278
 C        -1.5320735055        6.6170548298       -0.0338393446
 C         0.6228425291        4.1412240293        2.6810785127
 C         1.7782179445        3.3937742323        1.9638856989
 C         2.7640486891        2.7502423450        2.9880197052
 C         2.2480982376        1.3534929399        3.3105781614
 C         3.0891959284        0.5013225903        4.4732775025
 C         4.1416455475        2.4657208581        2.1300428502
 C         3.1979632857        3.6135898137        4.2402052430
 O         2.0017548443        3.2848692566        0.7715710555
 O         1.2093498307        0.9323745334        2.8464730512
 C         2.3070445979        0.4795590605        5.7455857429
 C         3.2303574598        0.0515953404        6.8887254028
 C         2.5264876222       -0.2096319294        8.2759959112
 C         1.6285457608        1.0267010331        8.7582501944
 C         1.1287461671        0.9815038202       10.1904768159
 O         4.4145729418       -0.2183029555        6.7331158479
 O         1.3306622730        1.9293047614        8.0115048760
 C         1.5538513779       -1.4160161749        8.1344575408
 C         3.5591917069       -0.5710480599        9.3085727037
 H        -0.3419905353       -6.3908773453        1.6242795358
 H        -0.4016241568       -6.4117369726        3.4267092934
 H         0.8021868019       -7.4611735306        2.4174085965
 H        -4.7275722778       -7.1412216594        0.7823819189
 H        -4.1239280588       -7.1321508578        2.4415588133
 H        -1.0557589709       -9.3055199329       -0.7232519065
 H         0.0869185510       -8.6984083295        0.4279194551
 H        -0.8276586557       -7.5105235133       -0.5690158901
 H        -3.6228050681       -9.6796084246        1.8590509976
 H        -3.5590695735       -9.5023973321        0.0907116853
 H        -2.3147809960      -10.4955944376        0.9805359944
 H        -5.0535895460       -5.0436139664        2.5977280039
 H        -3.5200483582       -4.5112686549        2.0021825652
 H        -3.9572481784       -3.4096784306       -2.3372519106
 H        -3.8871494717       -1.6092556158       -2.1748035855
 H        -5.3015995971       -1.1584038353       -0.6502373504
 H        -6.6424171297       -1.8074742123        0.3873756673
 H        -6.1327549082       -2.6220173070       -1.2129805253
 H        -3.5586513610       -2.7544678873        2.3474519665
 H        -4.2698108428       -1.2937051953        1.8731286806
 H        -5.4361128303       -2.5255981857        2.5563128443
 H        -1.8983751782       -2.5384687817       -3.5989313208
 H        -1.4492420576       -3.5125797788       -2.0807592243
 H         3.0897999356       -1.0257501509       -1.5583916372
 H         2.5491726249       -1.9303600041       -2.9543974815
 H        -0.2105177313       -1.4041937827        0.8686471359
 H        -0.6576840798        0.0992101980       -0.0328211251
 H         0.9734396551       -0.2349347598        0.4111674783
 H         0.1585746204       -3.0713621022        0.1002363225
 H         0.7498051577       -3.5268372688       -1.6171105608
 H         1.8500973441       -2.6327958806       -0.5142642669
 H         3.1310126744        1.0675990750       -3.0296914047
 H         4.2408788724       -0.1625845837       -3.4931289138
 H         0.7572130427        0.7683480062       -7.9540059352
 H         0.3174945463       -0.1815560975       -6.5459022438
 H         2.9418307992        2.7169386307       -4.0727860351
 H         3.7526524520        3.2403901647       -5.5528329787
 H         4.4420420627        1.8560874203       -4.4690454082
 H         2.9392998257        0.8152130320       -7.9017800125
 H         4.2563664493        1.5720388358       -7.3564673269
 H         4.1285251975       -0.0939141767       -6.9615706961
 H        -1.7153402961        0.6818322123       -7.2108324336
 H        -1.0836582298        2.2125322006       -7.8290785106
 H        -0.6955802780        5.2183581539       -4.5277373147
 H        -2.0900600729        6.1794940868       -4.9336356346
 H        -1.2642162712        4.8232679670       -6.9180898893
 H        -3.0762296365        5.0905967830       -6.8787164381
 H        -2.3814767231        3.6079586674       -7.7880691842
 H        -4.6127864294        3.0994156282       -5.5306534096
 H        -3.9165967492        1.9489464072       -6.8271327579
 H        -3.8538151394        1.7202936839       -5.0821014531
 H        -1.3833854905        6.9991522953       -2.8046087636
 H        -2.6216474330        5.8968065893       -2.2350336498
 H        -1.2301042552        5.2086982238        2.4008703704
 H        -1.3063853563        3.5266197742        2.4659639889
 H         1.5940852615        5.2132229213       -0.8123594111
 H         1.3020936006        6.0404043427        0.6915234802
 H         1.0850018943        6.9543355779       -0.8491682674
 H        -1.1396737801        6.9629674142        0.9411060731
 H        -1.4116597252        7.4120281609       -0.6945227728
 H        -2.5310604010        6.2582884505       -0.2582379571
 H         0.3691956917        3.4991959489        3.5106815902
 H         0.9830263328        5.1327199048        3.0803476492
 H         3.0863554332       -0.4808468689        4.0758230917
 H         4.1136250377        0.7556634194        4.5993257954
 H         4.1184924863        1.6894847832        1.3216171463
 H         4.8858448725        2.0586803070        2.8616414185
 H         4.4548386764        3.4093995491        1.6973214640
 H         3.6624960001        2.8226534832        4.8429558627
 H         3.7830999048        4.5491992468        4.2198243772
 H         2.3207132976        3.9332499381        4.7635318834
 H         1.8349359412        1.3337029747        6.0856333016
 H         1.4836148951       -0.1501641083        5.6154411211
 H         0.9324341182       -0.0179809541       10.5839558272
 H         1.8817411990        1.4899771312       10.8683298693
 H         0.1800716486        1.5526517934       10.2701489614
 H         1.1932108859       -1.6723679698        9.0903678850
 H         1.9846953469       -2.3104647896        7.8164619747
 H         0.7756340770       -1.1061067407        7.4682516486
 H         3.1019392777       -0.8736523411       10.2252951673
 H         4.1037067285       -1.4809979078        8.9351072618
 H         4.1895329930        0.2412379449        9.5949059238
 Na       -1.2731132323        1.9658071871       -2.1640726569
