155

 C         0.2883361198       -8.1974168809        1.3922970169
 C        -1.1486083843       -7.8833144656        1.6636282903
 C        -2.0400061578       -7.6263695270        0.4013839178
 C        -3.0209322469       -6.5573110509        0.7003760035
 C        -4.3159924511       -6.8653615713        1.4889002239
 C        -1.1685242061       -7.2591432626       -0.8980562028
 C        -2.8277438439       -8.9780245938        0.2550337067
 O        -1.6496578999       -7.8218376033        2.7271408695
 O        -2.9504545937       -5.3581305171        0.5062687902
 C        -4.7898053714       -5.5292636648        2.1753422107
 C        -5.2453038265       -4.5533472918        1.1495244347
 C        -4.9412481630       -3.0154183404        1.2852905145
 C        -3.6400989046       -2.6170860682        0.4614633036
 C        -3.4428887202       -2.9591523546       -1.0662244254
 O        -5.8672267690       -4.8148534557        0.1193986433
 O        -2.7657179832       -2.0820092922        1.0892570439
 C        -6.1154179770       -2.2073278725        0.8031657319
 C        -4.6421832374       -2.6536065031        2.8214258661
 C        -1.9645927078       -2.8222160848       -1.4596038888
 C        -1.3790492497       -1.3869607852       -1.4779159447
 C         0.0115575801       -1.1271291453       -1.0296902494
 C         0.7594859478       -0.5821898683       -2.2995649821
 C         2.1550091314       -1.0962040109       -2.6536762558
 C         0.1104055527        0.0306177736        0.0995625290
 C         0.7252503161       -2.3664447356       -0.3953957153
 O        -2.1029588793       -0.4629461404       -1.8113912432
 O         0.3332307038        0.4282317325       -2.8648434749
 C         2.9011204141       -0.2178927443       -3.6894252839
 C         2.2055098441       -0.1253898755       -5.0171618416
 C         2.3324875219        1.0342060724       -6.0257275072
 C         0.9100971438        1.6560373436       -6.2697525578
 C        -0.2348142319        0.8814977380       -6.9293615602
 O         1.3576018246       -1.0230142691       -5.1478083155
 O         0.7236243320        2.7928856645       -5.8764495473
 C         3.3264292346        2.1482070321       -5.4920445551
 C         2.9551664398        0.4719576964       -7.3141568101
 C        -1.5414080538        1.7555540218       -6.9389001307
 C        -2.1301143582        2.2854355818       -5.6782181960
 C        -2.8485177694        3.7080715294       -5.6310374476
 C        -2.1722966376        4.3676883569       -4.2907765089
 C        -1.0086084431        5.3572912158       -4.6063540862
 C        -2.6431209659        4.5722613416       -6.8988424486
 C        -4.3188202643        3.3198311537       -5.4202790225
 O        -2.0793285004        1.5796499127       -4.6572767251
 O        -2.4032254917        4.0717431470       -3.1769042502
 C        -0.3402686089        5.9001298492       -3.3113618169
 C        -0.0234727262        4.8258783402       -2.1531779613
 C        -0.3626693133        5.1586595831       -0.6828114123
 C        -0.5818874396        3.7795818590        0.0206924505
 C        -0.5738411731        3.5849500513        1.5359231515
 O         0.4232897372        3.7438906804       -2.3870118899
 O        -1.0797933631        2.7587820470       -0.4325442872
 C         0.8896901567        5.8866528661       -0.1693298532
 C        -1.5683046228        5.9830122653       -0.3069103721
 C         0.6972641439        3.8504519738        2.4108712926
 C         1.9805902152        3.1842133741        1.8992225659
 C         3.0646040750        2.5793658244        2.8842417506
 C         2.4211830696        1.4746172395        3.9430831836
 C         3.2766235206        0.2438546339        4.3715272322
 C         4.1728637195        1.9396123190        2.1789500427
 C         3.5366830466        3.7079330745        3.8695548417
 O         2.1160773817        2.9655679601        0.7227210587
 O         1.3847309015        1.7129771788        4.5154849420
 C         2.7824603126       -0.3401979568        5.7141358816
 C         3.8991151039       -0.1379573250        6.8517129679
 C         3.5189370052       -0.1910317864        8.3493815482
 C         2.7392376358        1.0563339590        8.7271197254
 C         1.9644584310        1.1281581429       10.0362127080
 O         5.0333122767        0.2498594567        6.5660619362
 O         2.7209727362        1.9921916812        7.9642910544
 C         2.5006840162       -1.4103062885        8.4727672615
 C         4.7760367502       -0.4928124831        9.1974777999
 H         0.7038054211       -8.4579700951        2.3535488529
 H         0.3721545787       -8.9962505916        0.6102376288
 H         0.7868501371       -7.3192907304        0.9579174841
 H        -5.1282479052       -7.1342613873        0.7814220376
 H        -4.2588929609       -7.6269378127        2.3230417690
 H        -1.7948522213       -7.3139320676       -1.8152947558
 H        -0.2327963915       -7.8175401106       -1.0772461999
 H        -0.9255084256       -6.1898514156       -0.8417480054
 H        -3.2527564789       -9.1457533457        1.2281977348
 H        -3.6994567250       -8.8627474056       -0.4788963503
 H        -2.2453315963       -9.8607706589       -0.0648391084
 H        -5.7375508885       -5.7248645523        2.7286116698
 H        -3.9548996935       -5.1948497252        2.7115103121
 H        -3.8795871609       -3.9326700967       -1.3830511415
 H        -4.0286182790       -2.2130732977       -1.6794321827
 H        -5.9783737037       -1.1542608376        1.1887235292
 H        -7.0121435096       -2.5403078189        1.4322119647
 H        -6.3097219125       -2.1020306818       -0.2334896552
 H        -3.8600929168       -3.3570209404        3.1784220120
 H        -4.3665980347       -1.6240330057        2.9001011398
 H        -5.5702321548       -2.7749338585        3.3500691853
 H        -1.7707461037       -3.2983524942       -2.4747898605
 H        -1.4438134990       -3.5278179981       -0.8146054983
 H         2.7815180852       -1.0193982686       -1.7552815239
 H         2.1020714868       -2.1092190446       -2.9801315927
 H         0.6613119306        0.9146557217       -0.2107813841
 H         0.5210539630       -0.4825648053        0.9357835147
 H        -0.9084457550        0.3583903302        0.2947045691
 H        -0.0587414383       -2.8177850709        0.2691428693
 H         1.0895996627       -3.2329128193       -1.0156179014
 H         1.6031335172       -2.1224400601        0.1892400945
 H         2.8922916115        0.7861197216       -3.2518151878
 H         3.8792450590       -0.6662129259       -3.7023530661
 H        -0.0207899221        0.5843318890       -7.9683240000
 H        -0.5521371324       -0.0076878837       -6.3901198233
 H         2.9896286328        2.6158044871       -4.5980576211
 H         3.3498521412        2.9182828278       -6.3212973183
 H         4.3048660209        1.6835833537       -5.3372565876
 H         2.3690538805       -0.4245173828       -7.6479499931
 H         3.0104183035        1.2718973745       -8.1380237200
 H         4.0079784281        0.1520806947       -7.1931649141
 H        -2.2394589516        0.9807514895       -7.3949113622
 H        -1.3704802459        2.4484204140       -7.7858490399
 H        -0.2956280439        4.7299860621       -5.1644866852
 H        -1.3494451772        6.2741543071       -5.1821293907
 H        -1.6261713567        4.4834227566       -7.3055542608
 H        -3.1867898458        5.6008793941       -6.7695472662
 H        -3.0490971826        4.0778309660       -7.7460176375
 H        -4.8678331162        4.2302195705       -5.4389591029
 H        -4.8620346988        2.7817483354       -6.1974651957
 H        -4.3787855542        2.9264364657       -4.4067841957
 H         0.6067265800        6.1984211076       -3.7976899540
 H        -0.8645922062        6.7676751670       -2.9495339916
 H        -1.3605459716        4.2576798354        1.9106267722
 H        -0.8722522297        2.5077235934        1.6851971401
 H         1.7706780232        5.3809579414       -0.4744603343
 H         0.8400613861        6.0744598563        0.8739316222
 H         1.0175822464        6.9445241370       -0.5899795113
 H        -2.4465774767        5.4805533415        0.1811907381
 H        -1.2560350318        6.7926805825        0.2648055608
 H        -2.0419364575        6.3975624496       -1.2300161882
 H         0.4872745147        3.5248246240        3.4460066358
 H         0.9316290538        4.9168453017        2.3819234958
 H         3.3004059072       -0.5062290159        3.6065472538
 H         4.3083153201        0.4907049112        4.5338914476
 H         3.8013365122        1.1609151698        1.5390846099
 H         5.0417655654        1.7124487978        2.8216262271
 H         4.6218775598        2.5681251134        1.4237904126
 H         3.5598641412        3.5226331287        4.9171941893
 H         4.5465997769        4.0726982143        3.5260629495
 H         2.8665367035        4.5981967932        3.9336947816
 H         2.0465648814        0.2929283250        6.0922583864
 H         2.5378353463       -1.3404505025        5.6621471833
 H         1.8619169043        2.1360293435       10.4588449364
 H         0.9102699114        0.7334744895        9.9233624794
 H         2.4589924784        0.4822264041       10.7762253229
 H         2.1400352143       -1.3284963623        9.4705871214
 H         2.9952696393       -2.3459749099        8.2704339240
 H         1.6283971311       -1.2637408904        7.8887975528
 H         4.5201488001       -0.9825291857       10.1236864111
 H         5.4162212816       -1.2377140763        8.6887919286
 H         5.4005879615        0.3547260641        9.3369688599
 Na       -1.7650067024        1.7005031584       -2.3565999429
