155

 C         0.3264669740       -8.4467389353        1.3481242911
 C        -1.1006546195       -7.9276215034        1.5359326867
 C        -2.0562178607       -7.8604164164        0.2657926529
 C        -2.9876414475       -6.5770586861        0.7256614681
 C        -4.2990978810       -6.6618477898        1.4081385187
 C        -1.3089007053       -7.2580190652       -1.0149963865
 C        -2.7764429029       -9.0903655093       -0.3206872300
 O        -1.3777364739       -7.4499357227        2.6511369168
 O        -2.5185129249       -5.4807037186        0.4938888211
 C        -4.8975207346       -5.3948361847        2.1326038528
 C        -5.3953748696       -4.3177041341        1.1069351551
 C        -4.9730641268       -2.8562553820        1.4906341621
 C        -3.6657184984       -2.4953373234        0.6650679965
 C        -3.5999972840       -2.8530059526       -0.7831025854
 O        -6.0401223677       -4.6856940857        0.1428297193
 O        -2.7864621726       -1.8552065183        1.1905920380
 C        -6.1827178184       -1.9045416775        1.0029418801
 C        -4.7684255842       -2.5965690265        2.9616132698
 C        -2.1667799313       -2.8494017397       -1.3381579484
 C        -1.6413831062       -1.4510222788       -1.2979162784
 C        -0.0761487018       -1.0349076367       -0.9764165452
 C         0.7552644278       -0.5033454636       -2.2376573750
 C         2.1095077025       -1.0847406641       -2.6652983428
 C        -0.0450363807        0.1174275363        0.0204281678
 C         0.7156535340       -2.2279512271       -0.4140321676
 O        -2.4093151407       -0.4878115323       -1.4327009091
 O         0.3372132087        0.4557007105       -2.8433853277
 C         2.6619886387       -0.1936357143       -3.8444655370
 C         1.9383601823       -0.2489853180       -5.1469304570
 C         2.1847075298        1.0125710582       -6.1016165665
 C         0.8028338087        1.6483075662       -6.3400177187
 C        -0.3444421858        0.8838827477       -6.8969513049
 O         1.2089445498       -1.1186539258       -5.4405829462
 O         0.6160172186        2.8132211745       -6.0686790309
 C         3.0536692785        2.1221329914       -5.5323262223
 C         2.8175765608        0.3252762872       -7.2757740649
 C        -1.6410760178        1.8038878536       -7.0379448805
 C        -2.0754544564        2.2099266783       -5.6864927145
 C        -2.6837311330        3.6421506195       -5.5260248986
 C        -1.9851904323        4.3391091055       -4.3056983786
 C        -0.7533064866        5.1796631773       -4.4879812335
 C        -2.6166132867        4.5670473393       -6.8049282577
 C        -4.1511244191        3.4005629062       -5.2075133759
 O        -2.0933161036        1.3903364979       -4.7694839529
 O        -2.4703689426        4.1454574313       -3.1491068471
 C        -0.1041993622        5.8379883336       -3.2383316045
 C         0.0293240856        4.7018995356       -2.2112170597
 C        -0.3565998193        5.0865427779       -0.7151604687
 C        -0.6540285816        3.8421155803        0.1570637131
 C        -0.5079021278        3.6581343840        1.6765357112
 O         0.2777843731        3.5574024942       -2.5751309141
 O        -1.1392844542        2.8828008394       -0.4424365288
 C         0.7930412719        5.8429864445       -0.0677017366
 C        -1.6810682101        6.0081041154       -0.6781630597
 C         0.7992587734        3.7342132781        2.4518226150
 C         2.0159067378        2.9068787045        1.9825444604
 C         3.1643935617        2.5336919620        2.9051415635
 C         2.5427918724        1.5742920280        4.0954105145
 C         3.3260483894        0.3079561884        4.3971575257
 C         4.3602991501        1.9396970401        2.0555993666
 C         3.6820487044        3.7123648589        3.7415080155
 O         2.0346795216        2.5499671390        0.8232660453
 O         1.5229759540        1.9052867429        4.6382542560
 C         2.9221650888       -0.3741286838        5.6807075171
 C         4.0451131802       -0.1875531078        6.7626101412
 C         3.5298732319       -0.2631097783        8.3160354013
 C         2.8026784685        1.0422535021        8.7069716766
 C         2.2546937628        1.1808100047       10.1548135902
 O         5.1423773113        0.1136410277        6.4902864433
 O         2.9113823824        2.0231021110        8.0046820879
 C         2.7440604749       -1.4628126086        8.6563933339
 C         4.8476998130       -0.3365565225        9.1145129626
 H         0.3642338609       -9.5847028170        1.4293988646
 H         0.7215399397       -8.1116448911        0.4058604534
 H         0.9999886293       -8.0032629583        2.1198498916
 H        -4.9918703449       -6.8666098763        0.5814971881
 H        -4.4101809505       -7.4541506396        2.1187928006
 H        -1.9437997675       -6.6279923726       -1.6233914990
 H        -0.8517454624       -7.9921036984       -1.6866390056
 H        -0.5268085178       -6.5507954283       -0.7196837498
 H        -3.7564682039       -9.0685643403        0.2000835741
 H        -2.9459490024       -9.0619007370       -1.3436529072
 H        -2.3672542524      -10.0615224518       -0.0555666919
 H        -5.6831998747       -5.8251172992        2.6995436023
 H        -4.0889422469       -5.0134166676        2.8160424714
 H        -4.0070257299       -3.8641918516       -0.8481202136
 H        -4.2038712970       -2.2871657785       -1.4658794172
 H        -5.9835691094       -0.9385126450        0.5970463748
 H        -6.8717324759       -1.8220280666        1.7870329317
 H        -6.6109657481       -2.4046693196        0.1464123203
 H        -3.7492612871       -2.7536715414        3.2933367133
 H        -5.1129101120       -1.5533046454        3.1643686385
 H        -5.5630723320       -3.1977270503        3.4554921130
 H        -2.1866137298       -3.2121938869       -2.3307162199
 H        -1.5250184409       -3.5619766111       -0.7841421203
 H         2.7129883272       -0.8166210374       -1.7691621369
 H         2.0769895500       -2.2117027811       -2.8380610579
 H        -0.7796893982        0.8785731215       -0.4159349070
 H         0.9749396676        0.4342013310        0.1996603527
 H        -0.5927009644       -0.1124915215        0.9233677080
 H         0.4806896885       -2.4514747231        0.5876877212
 H         0.5626711809       -3.1706640816       -0.9050074688
 H         1.8259676297       -2.0630440513       -0.5236606716
 H         2.5784719203        0.8071392473       -3.4432809218
 H         3.7346331030       -0.4386805440       -4.0397452282
 H        -0.0771404991        0.4994333557       -7.8735931415
 H        -0.5545251434        0.0331201022       -6.2348592953
 H         2.4363909514        2.5773390707       -4.6891842034
 H         3.2643488917        2.8863956593       -6.2512107778
 H         3.8982067605        1.6253351546       -5.0062478172
 H         2.8728044920       -0.7184963487       -7.1144260913
 H         2.3294978172        0.4514128307       -8.2109839125
 H         3.8440941865        0.6640964734       -7.3667306440
 H        -2.4833947790        1.3955113115       -7.5684141337
 H        -1.2213893535        2.5240977322       -7.6746317352
 H        -0.0614280353        4.4456684815       -4.9522038987
 H        -1.1505266618        5.8948902818       -5.1862760449
 H        -1.6547918411        4.7938983534       -7.1338530843
 H        -3.1616003219        5.3416389045       -6.4595756624
 H        -3.0172403517        4.2349970672       -7.7542397509
 H        -4.8526936547        4.2950006376       -5.1001869186
 H        -4.5285160701        2.8629523367       -6.0833871035
 H        -4.2523122205        2.7944727209       -4.2874029392
 H         0.8330205149        6.3167965560       -3.5744204974
 H        -0.7954662554        6.6052955902       -2.7929956059
 H        -1.1844199340        4.3560685682        2.2307648848
 H        -0.9538753607        2.6579702251        1.7573640863
 H         1.6703252526        5.2725526880        0.3144442644
 H         0.3496861818        6.4645919571        0.7475995185
 H         1.2221132517        6.5264623822       -0.7479126484
 H        -2.4001257003        5.5473263601       -1.3314397064
 H        -2.2301305729        5.8589305323        0.3627092367
 H        -1.6139799188        7.0889242582       -0.8515015470
 H         0.5893879488        3.3847077824        3.4784207247
 H         1.0987245335        4.8058763417        2.5667639491
 H         3.1683726837       -0.3995370311        3.5450351712
 H         4.4285781495        0.5041812462        4.5059169572
 H         4.0772778263        1.1854406219        1.3166020569
 H         5.2015236446        1.7123902046        2.6633164847
 H         4.7629265981        2.6518427713        1.3033926338
 H         4.5679363556        3.4328810463        4.3845804225
 H         3.9762573083        4.4546277620        3.0494588070
 H         3.0556665577        4.1468825730        4.4996428373
 H         1.9419458638        0.0720388007        6.0673191364
 H         2.9684138461       -1.5212807478        5.5511658935
 H         2.5918829194        2.1729620366       10.5143630566
 H         1.1871256606        1.2692398820       10.2033510243
 H         2.5858287877        0.3924551951       10.8371908025
 H         2.7078145234       -1.6270887437        9.7498008801
 H         3.2672642824       -2.3232421637        8.2502948211
 H         1.7566330157       -1.3066672003        8.2196922451
 H         4.6818996674       -0.5797994640       10.1768955190
 H         5.4960206190       -1.1167701979        8.8139443010
 H         5.3420030748        0.6579774880        9.0389961581
 Na       -1.7185728658        1.6152248631       -2.4312944941
