155

 C         3.9630338206       -1.3720447426       10.6516982225
 C         3.9642256864        0.1219810297       10.3559953016
 C         5.4096029260        0.5894952705        9.5776911282
 C         5.2838267505       -0.2065585590        8.2254044658
 C         4.7043107922        0.5053067297        6.9355574102
 C         5.4622973611        2.0959660036        9.2717390523
 C         6.6519617081        0.0711477023       10.3695933733
 O         3.0716655953        0.9122758635       10.5445223710
 O         5.3425345789       -1.4520348723        8.1820423997
 C         4.1814736918       -0.4966861322        5.8780418536
 C         4.2765141750        0.1456282334        4.4790889678
 C         3.3301132802       -0.4897305702        3.2668522055
 C         1.8914513311       -0.6716059564        3.6444419046
 C         1.3109948628       -2.1447603473        3.7754831019
 O         5.0043338037        1.0665138988        4.2314377785
 O         1.2693903100        0.2652610145        4.1080238079
 C         3.3308504748        0.5598687817        2.0011989390
 C         3.9522855981       -1.7070049376        2.8034182884
 C        -0.1896905291       -2.1337214432        4.1618337080
 C        -1.0537814978       -2.3427625009        2.9216838497
 C        -2.6012640569       -2.8820110975        2.9843256124
 C        -3.5839524075       -1.7060800359        2.7234439375
 C        -4.5334894629       -1.2010689531        3.7900173184
 C        -2.7754574943       -3.9518305624        1.8087890202
 C        -2.9366297579       -3.5750979040        4.3088315364
 O        -0.6670156668       -2.1013830593        1.8171326935
 O        -3.5805407175       -1.3219533681        1.5801474533
 C        -4.5837410655        0.3700440543        3.7389852548
 C        -3.5602567111        0.9622159126        4.6950489900
 C        -3.6928566762        2.4997020743        5.0201516591
 C        -2.9204332088        3.2346423964        3.9715851933
 C        -1.3571930104        3.1532641386        3.9377225516
 O        -2.5961767713        0.2962665599        4.9941703245
 O        -3.5128091307        3.8719073128        3.1100681848
 C        -5.1826307176        2.9418431469        5.0154113748
 C        -3.1505490767        2.7675099220        6.3891232388
 C        -0.7232856650        3.3260737197        2.5784185380
 C        -1.0475440792        2.3716971298        1.3543660705
 C        -0.3575780165        2.8666977890        0.0742207895
 C        -0.2249450182        1.5805061430       -0.8642341136
 C        -0.6735080194        1.4678303999       -2.4394772172
 C        -1.2108142292        3.8954653361       -0.6008435969
 C         1.1340908598        3.3415434673        0.2684444531
 O        -1.5441637276        1.2857143402        1.3185852452
 O         0.2674501784        0.5735568973       -0.3893270335
 C        -0.6983334805       -0.1138204459       -3.0578783710
 C        -1.9914959836       -1.0064165986       -2.9254887566
 C        -2.9794863358       -1.0096066065       -4.0660804303
 C        -2.3853697915       -1.9990440101       -5.3992879341
 C        -3.2759889900       -3.1323954510       -5.8334214011
 O        -2.1585827785       -1.5131526328       -1.7916090255
 O        -1.2511498081       -1.8128217595       -5.7414595016
 C        -4.2970242837       -1.5579582705       -3.4006291708
 C        -3.2616902140        0.4673021148       -4.4838461895
 C        -4.2574302853       -2.8102791671       -6.9959777817
 C        -3.5811780647       -2.6845276438       -8.4168473671
 C        -3.7429945287       -1.4326697784       -9.2341552938
 C        -2.3306317331       -0.6417074299       -8.8594279092
 C        -0.9698535104       -1.0367507366       -9.3307720679
 C        -3.6244680357       -1.6875029339      -10.7722976995
 C        -5.0724835657       -0.6173302560       -8.8286644966
 O        -2.8871257794       -3.6132684396       -8.7550114631
 O        -2.3960487622        0.4860223220       -8.3674049373
 C         0.1567473621       -0.3757510210       -8.5850453939
 C         1.3046876636        0.2878555774       -9.4553800515
 C         2.6930594005        0.7336893027       -8.8027277567
 C         2.1440918860        1.9422893957       -7.9981102089
 C         2.2542292285        3.3650776959       -8.4464922620
 O         1.0551287529        0.5119873903      -10.6412917075
 O         1.4744144660        1.6914290921       -6.9987130765
 C         3.3507925485       -0.3390524413       -7.8412137330
 C         3.7185163615        1.1549911683       -9.9235971332
 H         4.2624107395       -1.6186188451       11.6763606971
 H         2.9894055990       -1.6790696922       10.6634262726
 H         4.5835032321       -1.9461105751        9.9197666065
 H         4.0529655619        1.4264284935        7.1033387873
 H         5.6219529342        1.0562792152        6.5094165638
 H         5.4649865846        2.7757207925       10.1463788032
 H         4.6137416814        2.2963495050        8.5977547927
 H         6.4753753887        2.3446588809        8.7496720763
 H         6.6792732412       -0.9258896211       10.5216881962
 H         7.6470352959        0.2103407213        9.9065970253
 H         6.7858995366        0.5076702789       11.4179091360
 H         4.9445267876       -1.1868842286        6.0009123180
 H         3.1620525949       -0.9964916972        6.2427294757
 H         1.5597746835       -2.6926430401        2.8958971915
 H         1.9100902203       -2.6047371274        4.6345289548
 H         2.8836672813        1.4727950906        2.3479792554
 H         2.7190242290        0.0211226698        1.2870593504
 H         4.3276993569        0.7970864061        1.6130166405
 H         3.8325189735       -2.5351082954        3.5112788421
 H         3.4411296815       -2.0083749263        1.8600493505
 H         4.9975111146       -1.7207879758        2.5073910034
 H        -0.3076901255       -1.0633041761        4.5907065098
 H        -0.6158114351       -2.8191797039        4.9365432754
 H        -5.4399902859       -1.5816948904        3.5247563488
 H        -4.3561875605       -1.5502889339        4.8275134736
 H        -2.5712594091       -3.5414149204        0.7944121777
 H        -3.7637274616       -4.3581910408        1.8163159983
 H        -1.9924297263       -4.8126497034        1.8458263868
 H        -2.2157856285       -4.3590175117        4.5235916587
 H        -2.8123026869       -2.8519588792        5.0806302866
 H        -3.9033874418       -4.0736909811        4.3286766235
 H        -4.4701096552        0.6936317841        2.6924292200
 H        -5.5887242873        0.7949801214        3.9669786648
 H        -1.0447851882        3.8922547846        4.6431358057
 H        -1.0085164434        2.2147278750        4.4047093370
 H        -5.7864480712        2.1893614034        5.5665913504
 H        -5.4123770000        3.2205727135        4.0123238740
 H        -5.3224946609        3.8049890619        5.6178000362
 H        -3.0237914409        3.7835248687        6.4639065470
 H        -3.8696195202        2.5107426310        7.1742592088
 H        -2.3468298674        2.0337219373        6.5672345120
 H         0.3175520072        3.0876629024        2.6882738468
 H        -0.8214754584        4.4648012421        2.4921795031
 H        -1.4345026233        2.1590558207       -2.8365402983
 H         0.2222574156        1.8614926205       -2.9668732746
 H        -0.8918694442        4.9326836686       -0.2989990888
 H        -2.2221791179        3.7797504398       -0.1665373752
 H        -1.2084006593        4.0166922771       -1.6877063906
 H         1.3537757697        4.2723836542        0.7470757646
 H         1.7063522926        2.5094108295        0.7386181118
 H         1.7313186581        3.4852911855       -0.6614926927
 H        -0.4032912997        0.0227101842       -4.0926246593
 H         0.0369437237       -0.6453643297       -2.4724761483
 H        -2.6352538160       -4.0230017463       -6.1517773469
 H        -3.7944138088       -3.3515002413       -4.9236129648
 H        -5.1573764207       -1.6861093257       -4.1304769710
 H        -4.4618654822       -0.9227718036       -2.5773317958
 H        -3.9877429696       -2.5954468149       -3.0773941056
 H        -3.6193549899        1.0008763816       -3.5831494872
 H        -2.3837053568        1.0044109352       -4.8879430135
 H        -4.0418839187        0.5789241012       -5.3113183209
 H        -5.0320488805       -2.0835486795       -6.6627471974
 H        -4.8522268657       -3.6515499777       -7.1109434190
 H        -0.9422294836       -2.1522662872       -9.3850353343
 H        -0.8867586707       -0.8710500449      -10.3768498225
 H        -3.0089853789       -0.9222196820      -11.3610373973
 H        -4.6139798310       -1.5908322466      -11.3173694503
 H        -3.2220648582       -2.7068966557      -11.0272446305
 H        -5.9336496763       -1.2797361027       -8.9391898919
 H        -4.9949603759       -0.1359059865       -7.7840862389
 H        -5.3118950622        0.2136834462       -9.4525027276
 H        -0.2507398785        0.4333870899       -8.0305245332
 H         0.5659722982       -1.0831606164       -7.8252900743
 H         2.3287438152        3.4800293119       -9.5359671863
 H         1.3281382070        3.8217188074       -8.0451241401
 H         3.0067316524        3.9821824398       -8.0218052504
 H         3.8845941056       -1.2170892331       -8.2711354536
 H         2.5903997607       -0.6486951116       -7.0527228888
 H         4.1165562847        0.2377208307       -7.3051661064
 H         4.1574382652        0.2500881178      -10.3010926281
 H         3.2792502569        1.7610023307      -10.6898848702
 H         4.5122207240        1.8607612780       -9.6728490560
 Na       -1.7854328258       -0.5739925548        0.2317527986
