155

 C        -3.3734838762       -9.5437956438       -1.1253035730
 C        -3.6115520807       -8.4131680940       -0.2055922992
 C        -4.8499920086       -7.5108320480       -0.3354497010
 C        -4.3459817112       -6.2261472059        0.1994608216
 C        -4.1800436268       -6.0766681642        1.7907388807
 C        -5.3705275720       -7.2475859549       -1.7957353506
 C        -6.0914187937       -8.2681952084        0.3738528874
 O        -2.6034920647       -8.0138742307        0.4163032994
 O        -4.1438270510       -5.2662733071       -0.5207367093
 C        -3.4881959138       -4.7297579068        2.3773645724
 C        -4.4038033066       -3.5271281295        2.6077112424
 C        -3.8104386140       -2.1380806301        3.1026892928
 C        -3.0463206481       -1.4278421724        1.8790866951
 C        -3.8272324405       -1.1450984016        0.6559010543
 O        -5.5482040734       -3.4447650005        2.2865806442
 O        -1.8848114522       -1.1775235712        2.0082678677
 C        -4.8825061359       -1.1935337833        3.6322607841
 C        -2.7329181119       -2.4619744785        4.1996917006
 C        -3.1685028340       -2.0106637519       -0.4585678421
 C        -2.0750162217       -1.1921778114       -1.1108648960
 C        -0.9085851651       -1.8925469191       -1.9336659802
 C         0.0088997563       -1.0928628674       -2.8656533908
 C         1.0768324924       -1.8207802189       -3.7273196546
 C         0.1862840272       -2.1681227000       -0.7798951807
 C        -1.4144250936       -3.1737477226       -2.5244030871
 O        -2.1442303225        0.0148118747       -1.0115181688
 O         0.2115073081        0.0759983344       -2.6964847938
 C         1.3265514018       -1.3903693128       -5.1840907738
 C         0.0496519976       -1.2978593894       -5.9884848773
 C         0.0217693477       -0.6222612183       -7.4452310361
 C        -0.8442452974        0.7511862189       -7.3704471965
 C        -2.3837546940        0.6731861920       -7.0344762325
 O        -1.0458555508       -1.7241220747       -5.5906779279
 O        -0.3702852185        1.7971317801       -7.7978503260
 C         1.3913186340       -0.2593334570       -8.1065101777
 C        -0.6880844993       -1.6931548541       -8.3818840915
 C        -3.1360969317        1.9148092700       -6.5838975761
 C        -2.4571735604        2.4937835642       -5.2513946441
 C        -2.9104151179        4.0377070311       -4.9041247767
 C        -2.8292933817        4.3222760274       -3.3934934174
 C        -2.5543682871        5.7898657053       -2.8896964305
 C        -1.8991463549        4.8870162133       -5.7180500583
 C        -4.4300607215        4.3015631242       -5.0579390291
 O        -1.5680319157        1.9385859977       -4.6306347015
 O        -3.0249322451        3.4767392819       -2.5414204754
 C        -1.6511573758        5.6959853460       -1.6855382648
 C        -0.4529416051        4.6354157710       -1.7898034624
 C         0.5357028045        4.5067198917       -0.5478867342
 C        -0.1148067103        3.4777740548        0.4380142737
 C        -0.0220888811        3.6691455403        2.0042690107
 O        -0.2613457676        3.9598656795       -2.7894460547
 O        -0.6202903971        2.4743779916       -0.0605704296
 C         1.8639810699        3.8816512402       -1.0621354099
 C         0.8230024481        5.9320451032        0.0410376979
 C         1.4375194919        3.9257789038        2.5256889831
 C         2.3282116221        2.7954789476        2.8521398325
 C         3.7961923259        3.1047167002        3.4233931639
 C         3.7849168628        2.7831788858        4.9899566763
 C         3.4522090963        1.3835196419        5.5398546673
 C         4.8301876282        2.0940762107        2.7359470001
 C         4.3549360491        4.5446357819        3.2199362631
 O         1.9607379740        1.6347041943        2.7252816366
 O         4.0543607920        3.5614107661        5.8815841891
 C         4.4693765818        1.0877299000        6.6724882361
 C         5.9153977278        0.7626928673        6.2925235213
 C         6.8256115552        0.0228803575        7.2841096274
 C         6.9975399267        0.9181182668        8.5907548055
 C         7.6468694873        2.2737931743        8.1967997711
 O         6.3658732153        1.3711604753        5.3084358912
 O         6.6257957461        0.4714508804        9.6004294490
 C         6.2839201181       -1.3797308587        7.7133243858
 C         8.1811375188       -0.1751508736        6.6220533205
 H        -3.4557527486       -9.2159145726       -2.1850533504
 H        -2.3852775430       -9.9247293038       -0.9124049897
 H        -4.0043822294      -10.4385918397       -0.9803751680
 H        -5.1112908819       -6.2572075708        2.3535999225
 H        -3.4783552600       -6.8520743840        2.0796248939
 H        -6.4349883977       -7.0292989132       -1.6979500460
 H        -5.1168254426       -8.0281033316       -2.5000719244
 H        -4.9246392439       -6.3334436412       -2.2013037407
 H        -5.8571026403       -8.4450893552        1.4205437897
 H        -6.9412091576       -7.5706090545        0.5379386557
 H        -6.3166124729       -9.1596953622       -0.2161762191
 H        -3.1949021999       -5.2118748460        3.3948757918
 H        -2.5797774673       -4.4781425228        1.7897728746
 H        -4.8632350977       -1.4068358127        0.9594116688
 H        -3.9409570615       -0.0467951974        0.4333709527
 H        -4.3628495097       -0.4026881802        4.2110732679
 H        -5.4284262038       -1.6150231871        4.5054578414
 H        -5.5206892319       -0.8634634935        2.8257625297
 H        -2.2401459889       -3.3550354498        3.8071599199
 H        -1.9768647160       -1.7403191339        4.4021848892
 H        -3.2410850196       -2.6960146966        5.1176829957
 H        -3.8726051482       -2.3882313934       -1.1633270843
 H        -2.6640593880       -2.9634616319       -0.0884282689
 H         2.0141056967       -1.5046327924       -3.1743651499
 H         0.8825696390       -2.9076354431       -3.7275568930
 H         0.9440745870       -2.8590261202       -1.2622845065
 H        -0.3379722458       -2.6420953140        0.0346367498
 H         0.7545646555       -1.2892966217       -0.3305678243
 H        -1.5820974950       -3.8700599651       -1.7166773723
 H        -2.2155475091       -3.1008307106       -3.1823612311
 H        -0.5933694093       -3.6258255082       -3.0260101634
 H         1.8097359391       -0.4381278147       -5.3179279925
 H         1.9866656095       -2.0732110121       -5.6898285573
 H        -2.8920074183        0.2883569964       -7.9521745178
 H        -2.5858691562       -0.1239464814       -6.2412749373
 H         1.9299754964        0.3100994830       -7.2711462402
 H         1.1962770962        0.5616754962       -8.8089599821
 H         1.9908101256       -1.0955785187       -8.5337229732
 H        -0.5984514283       -1.4334482591       -9.4649820757
 H        -0.1418399469       -2.5686802748       -8.0878844612
 H        -1.7577158911       -1.8675540070       -8.1303146915
 H        -4.1148479548        1.6567346581       -6.3077232002
 H        -3.1131665336        2.6872594110       -7.3405151888
 H        -2.0623781215        6.5609562166       -3.5829465889
 H        -3.4657493827        6.2613057650       -2.5281650760
 H        -0.9716504152        4.9314561552       -5.1497353340
 H        -2.2702422317        6.0042049931       -5.6923061681
 H        -2.0345914351        4.5831891494       -6.7105045421
 H        -4.6134387789        5.3029898790       -4.6868728764
 H        -4.8682223227        4.3188188272       -6.1179407434
 H        -4.9818968623        3.5657464312       -4.5115125608
 H        -1.0494883010        6.5944100608       -1.4968187784
 H        -2.3431809700        5.3308200319       -0.9033761954
 H        -0.7574146625        4.4143417841        2.3939233776
 H        -0.3824435591        2.6891928392        2.2762402226
 H         1.8120732911        3.5079356308       -2.0622603340
 H         2.0499888432        2.9937205409       -0.4377268902
 H         2.7208343559        4.4379794078       -0.9756243852
 H         1.7693580366        5.9505499935        0.5109027098
 H         0.8416057265        6.6129329599       -0.8550052065
 H        -0.0305729664        6.1937688008        0.6854264089
 H         1.3147178279        4.6919120762        3.2325322473
 H         2.0163924317        4.4746520515        1.7491623079
 H         2.3959849178        1.3498104089        5.9273420172
 H         3.4834128046        0.5682878440        4.7560274047
 H         4.6376016095        0.9918958091        2.7959913051
 H         5.8249693699        2.1835427210        3.2315610867
 H         4.9824289559        2.5241671283        1.7404133380
 H         5.1133375999        4.8384609242        3.9644101462
 H         4.8228526372        4.7553666918        2.2245580249
 H         3.5136774391        5.1832399761        3.3907843625
 H         4.5336141861        1.9579649760        7.2973450896
 H         4.1522281086        0.3125566052        7.3133351726
 H         7.7695244751        2.9955770487        9.0183182425
 H         8.6480554532        2.0904631763        7.7357319816
 H         6.9299427088        2.6151561918        7.4393013216
 H         7.1806598145       -1.8846824726        8.0552821862
 H         5.9336263892       -1.9667603232        6.8762731315
 H         5.6423480785       -1.3757000819        8.6117759879
 H         8.8386276503       -0.5730651613        7.3611516054
 H         8.1159074142       -0.8568857441        5.7445925406
 H         8.6237895793        0.7097792373        6.2107308585
 Na       -1.3106569644        1.7006698139       -2.3214234753
