155

 C        -5.9927253010       -7.4615661307       -2.0171924215
 C        -5.9000916861       -7.5104787313       -0.4043472260
 C        -6.4108585459       -6.1820707486        0.4006720392
 C        -5.1536087134       -5.4997146966        1.1045220447
 C        -5.0391772361       -5.5354584438        2.6313718353
 C        -6.9577501058       -5.0807176632       -0.6040781513
 C        -7.4106062506       -6.5958061893        1.3591572048
 O        -5.3624161472       -8.3793256696        0.2010943278
 O        -4.2874806844       -4.8845890456        0.4694599998
 C        -3.8538821086       -4.8855276010        3.2916387540
 C        -4.0722786617       -3.2883988360        3.3212029605
 C        -2.9487530249       -2.2746847918        3.5364539676
 C        -2.1004755075       -2.2424919949        2.2114557250
 C        -2.9528505622       -1.8403388072        0.9295284124
 O        -5.1971754195       -2.8471256794        3.2675684618
 O        -0.9574329741       -2.5583423381        2.0916496292
 C        -3.6365788735       -0.9415078275        3.8836269358
 C        -2.0635236573       -2.9119598656        4.6823542567
 C        -2.2828977248       -2.5525693860       -0.3164078105
 C        -1.2687338328       -1.6559891588       -1.0475586354
 C        -0.1629805475       -2.2587172989       -1.9868228250
 C         0.1459064712       -1.2276475343       -3.2364164254
 C         0.6658698702       -1.8854459139       -4.5246885736
 C         1.1590162378       -2.4808730352       -1.2289451519
 C        -0.7427907827       -3.6435994459       -2.4453207959
 O        -1.4095972383       -0.4413845736       -0.8472403403
 O         0.1250124253       -0.0122926518       -3.1964024464
 C         0.7675929387       -1.0508906390       -5.7907442209
 C        -0.4640346365       -1.1849216593       -6.7129669769
 C        -0.9215044095       -0.0862396192       -7.7345172195
 C        -2.1415312796        0.8690792381       -7.1850531628
 C        -3.3944272569        0.3349688508       -6.3344736787
 O        -1.2127381254       -2.1524651361       -6.5516489398
 O        -1.9759292136        2.0980670900       -7.2435133397
 C         0.0351220923        0.8989772998       -8.3674055255
 C        -1.5612831747       -0.8690301400       -8.8907079374
 C        -4.0575152404        1.5799794800       -5.6257082400
 C        -3.1792306819        2.2348931883       -4.6100649854
 C        -3.6182644958        3.6842045532       -4.1290246450
 C        -2.7799555834        4.0013121150       -2.7065218258
 C        -2.0695661439        5.3797902327       -2.3873498627
 C        -3.3094524721        4.7078552642       -5.2795825950
 C        -5.1569596576        3.9259750752       -3.8091465515
 O        -2.2827066306        1.6082317979       -4.0036214684
 O        -3.0064854064        3.1814460597       -1.8412302694
 C        -1.0107214841        5.3642715595       -1.3371028237
 C         0.1224944812        4.4428115399       -1.6774307201
 C         1.2648461657        4.3036393010       -0.5913014095
 C         0.6083327558        3.4860955365        0.4951216572
 C         0.6586654451        3.8380411153        1.9285929106
 O         0.0473726088        3.7759732807       -2.7006017125
 O        -0.0844402829        2.5455064117        0.1488928988
 C         2.3469958052        3.4121344842       -1.2031758733
 C         1.7520208709        5.7112715495       -0.1635788218
 C         1.9986207442        3.8573309812        2.7105508654
 C         2.6322859811        2.4566621953        2.5486814147
 C         4.1032985033        2.2924816596        2.9905350189
 C         3.8065251215        1.6996211840        4.5308063763
 C         4.2282533557        0.2414473117        4.7560373865
 C         4.8237696480        1.2212336326        2.1386593546
 C         5.0340027600        3.5639692755        3.1754100030
 O         1.9838006201        1.5683923004        1.9924496895
 O         3.1207507186        2.3476010748        5.3020588836
 C         5.3148423401        0.0512419182        5.7626948202
 C         6.7368583039        0.8181061079        5.4993271446
 C         8.0399107435        0.5364295154        6.3919613480
 C         8.1310311080        1.7923427457        7.3119108866
 C         8.2689415446        3.1955056017        6.6956909713
 O         6.8267652551        1.6706809416        4.6541233804
 O         8.1435630083        1.5942984287        8.4688686952
 C         7.8466261663       -0.6920384619        7.3104947611
 C         9.2858424333        0.2848889361        5.5101930287
 H        -5.5564926299       -6.4936738289       -2.2684565329
 H        -5.4372056848       -8.3380914150       -2.3837055022
 H        -6.9962364287       -7.5904402362       -2.4140939061
 H        -5.9690412839       -4.9491811654        2.9273501480
 H        -5.3148305100       -6.5544216454        2.9033624168
 H        -7.2500398721       -4.2059136275       -0.0206441281
 H        -7.9107357155       -5.4048914958       -1.0154165658
 H        -6.2770172380       -4.8603831800       -1.4221715882
 H        -7.0971074420       -7.5320966508        1.8877881889
 H        -7.4128154678       -5.9071698184        2.1938980157
 H        -8.4010697949       -6.6888174619        0.9151603758
 H        -3.5259018072       -5.3554350260        4.2618473722
 H        -3.0379032742       -4.9780865236        2.6349384568
 H        -3.9668321232       -2.2084506589        0.9401758334
 H        -3.0657390183       -0.8409144315        0.5708955245
 H        -2.8525751378       -0.1920983019        4.1370410066
 H        -4.2806330272       -0.9988552764        4.7233909677
 H        -4.2189204122       -0.5138776168        3.0506673120
 H        -1.0731796446       -2.5003577642        4.4998536501
 H        -2.3909310073       -2.6751923086        5.6598314935
 H        -2.0433359978       -4.0004362313        4.6708010577
 H        -3.0531059806       -2.8005203891       -0.9654409849
 H        -1.7245663530       -3.5023878089       -0.0549954988
 H         1.4876709149       -2.5172639935       -4.3089648874
 H        -0.1234528013       -2.6195104256       -4.6694348226
 H         1.7649192726       -3.0495458502       -1.8474079267
 H         0.9285352651       -3.1167645149       -0.3865641515
 H         1.5251973011       -1.5552176196       -1.0770481901
 H        -0.8714282851       -4.4055569667       -1.6099476813
 H        -1.7569308066       -3.4589391421       -2.8899104988
 H        -0.2045521271       -4.2606021967       -3.1733472261
 H         0.8678337894        0.0422270584       -5.3998278637
 H         1.6640733858       -1.3187194482       -6.3411105127
 H        -4.1897456699       -0.0430719552       -7.0015535763
 H        -3.1808007206       -0.3526829358       -5.5277088048
 H         0.6784262866        1.3364497799       -7.5519575133
 H        -0.3954234783        1.7677906580       -8.8919156185
 H         0.6861592638        0.4778220378       -9.1716186511
 H        -2.0594578064       -0.3299814156       -9.7010438265
 H        -0.7127854364       -1.3289381181       -9.3987498524
 H        -2.2807609425       -1.6650261134       -8.6266180961
 H        -4.9812928818        1.1885176284       -5.1730542029
 H        -4.4310744897        2.2831989783       -6.3882383514
 H        -1.5661742785        5.7292446967       -3.3622973110
 H        -2.8400299449        6.1006292911       -2.1191684656
 H        -2.3224842209        4.8798797469       -5.5688394843
 H        -3.5631401384        5.6841685968       -5.0690045370
 H        -3.9816582141        4.3690242048       -6.0892899727
 H        -5.1450254333        4.8857882204       -3.2733331764
 H        -5.7366731384        3.8442014671       -4.7368929364
 H        -5.5185097340        3.2634412105       -2.9838130112
 H        -0.5528620696        6.3316790199       -1.2614460358
 H        -1.4239990336        5.1085252131       -0.3563861255
 H         0.2077453560        4.8213077465        1.9767950560
 H         0.0806588769        3.0498519243        2.3828286130
 H         2.8383182040        3.8479793302       -2.0609643282
 H         1.8610439998        2.5079372580       -1.4737687776
 H         3.1350535386        3.2853487135       -0.4029773517
 H         2.4780996357        5.6721602060        0.7585491430
 H         2.3243490976        6.1790451505       -0.9640564258
 H         0.9335672860        6.4919341872       -0.1478696087
 H         1.8671175228        4.1937983065        3.7053651329
 H         2.7921200715        4.5042009868        2.2164242876
 H         3.3231327527       -0.3896699777        5.0889459871
 H         4.6320212531       -0.2592536110        3.8080345426
 H         4.1738992701        0.4196206291        1.7239829654
 H         5.6256521329        0.8132748659        2.7077406568
 H         5.1445710790        1.5693414577        1.1650311649
 H         5.8954618825        3.2385191153        3.8028316330
 H         5.4115898216        4.0064570992        2.2257537457
 H         4.5135325290        4.2706841500        3.7277547876
 H         4.8527906290        0.4438059224        6.7010179194
 H         5.5656995673       -1.0145499105        5.7928108219
 H         8.4186796323        3.8963633317        7.5541031047
 H         9.1146908458        3.3491746412        5.9977106888
 H         7.3416764159        3.4416046113        6.1651017644
 H         8.8178655207       -0.9372586939        7.7126504272
 H         7.4567800844       -1.5131623514        6.7330646498
 H         7.1686795692       -0.4892717577        8.1490499584
 H        10.1488345795        0.2066284013        6.0923515371
 H         9.2448170098       -0.6715091488        4.9407246360
 H         9.5389365755        1.0931290438        4.8279823769
 Na       -0.9687258081        1.7300655740       -1.9666037631
