155

 C        -6.1899463622       -6.7839850691       -1.2929571683
 C        -6.6865831840       -6.8951187206        0.0858911994
 C        -7.0986454683       -5.5265914624        1.0367457861
 C        -5.4799654723       -5.2380090407        1.2749208697
 C        -4.7313220312       -5.9678689264        2.4674816484
 C        -7.5741926980       -4.3418787436        0.1004563459
 C        -8.0176870716       -5.7012570923        2.2023476020
 O        -6.7926964318       -7.9966464335        0.6127264613
 O        -4.7663643532       -4.6850368537        0.4068020873
 C        -3.6051282515       -5.1228639144        2.9844077096
 C        -4.0966319908       -3.6348703267        3.3615434800
 C        -2.9852914731       -2.6450475011        3.5486230394
 C        -2.1501197244       -2.8289979358        2.2031233114
 C        -2.6577974377       -2.2515741806        0.9199325650
 O        -5.2540860342       -3.3447105541        3.4264197084
 O        -0.9577518990       -3.2944148605        2.1513952029
 C        -3.4784517643       -1.2167081575        3.6884954285
 C        -2.0292526201       -3.0335333013        4.7281416591
 C        -1.8829358517       -2.7606202518       -0.3106048800
 C        -1.1505973766       -1.6983311048       -1.1455840342
 C         0.2570744861       -1.8898016972       -2.0347483706
 C         0.3769646100       -0.9942268507       -3.2784027343
 C        -0.0706515154       -1.5196303020       -4.6869276231
 C         1.4131971918       -1.3724996364       -1.0282622792
 C         0.4117301778       -3.3783632008       -2.3508390285
 O        -1.6759275983       -0.6264769562       -1.2836405331
 O         0.6949046287        0.1776173570       -3.2121695482
 C         0.0798144927       -0.3938689695       -5.8285935198
 C        -0.8822023899       -0.9692233144       -6.9536653422
 C        -1.5517537981        0.0980116421       -7.9465256988
 C        -2.4028256990        1.0073867213       -6.9495295858
 C        -3.6109799625        0.3498115896       -6.2380653828
 O        -0.9654268519       -2.1607994504       -7.1452499193
 O        -2.0499134764        2.1320637079       -6.6714523663
 C        -0.6334031286        1.1558723792       -8.7239266236
 C        -2.4988780491       -0.7648969829       -8.7894280464
 C        -4.3230713633        1.3375822269       -5.2668888190
 C        -3.3049137963        1.9407589908       -4.1777156715
 C        -3.5959629666        3.4543838519       -3.7873681020
 C        -2.5664443634        4.0652235577       -2.8225054260
 C        -1.4659843970        5.1390635184       -3.3172845656
 C        -3.7504505059        4.4082569865       -5.0038277035
 C        -4.9715015656        3.3136636128       -3.0425029937
 O        -2.5243029199        1.2932814559       -3.5382522851
 O        -2.5932652535        3.7879210619       -1.6770224682
 C        -0.6595063087        5.5582276101       -2.0460764309
 C         0.2804077031        4.3998289504       -1.5900681902
 C         1.0402514637        4.4426426469       -0.3112935539
 C         0.3716344088        3.3454029255        0.6984806095
 C         0.7652032764        3.3003697345        2.2802443217
 O         0.2775158956        3.3755913803       -2.2898786239
 O        -0.5307322085        2.7098624577        0.2521783255
 C         2.5204210629        3.9750570732       -0.6593592024
 C         0.8227523619        5.8323235329        0.3457879538
 C         2.2815747149        3.3336366176        2.6094358137
 C         2.8303627443        2.0843962041        2.0174235216
 C         4.3964967171        1.8002218763        2.4939670534
 C         4.3183030499        1.4908152810        3.9388445878
 C         4.8526156558        0.1379286555        4.3481691010
 C         4.8422504849        0.5689639515        1.5951897741
 C         5.2787800918        3.0136028806        2.2884542745
 O         2.2731601141        1.4153333693        1.2155956097
 O         3.9308235408        2.2915475201        4.8476953310
 C         5.8765727985        0.1698913402        5.5021562685
 C         7.3035857922        0.7334182849        5.1954103690
 C         8.4275877057        0.6265173037        6.3486289384
 C         8.2680170421        1.9603144720        7.1120404411
 C         9.2734158676        3.0805351074        6.8690495523
 O         7.4427911014        1.4057026812        4.2119614310
 O         7.2835181385        2.0676097756        7.8965988604
 C         8.0557937926       -0.5075283169        7.2293886829
 C         9.7316382296        0.3331211244        5.6764295236
 H        -5.5728374947       -5.8786155488       -1.3404908516
 H        -5.7306453575       -7.7220671927       -1.5472382551
 H        -7.1059994412       -6.5300143019       -1.8402579347
 H        -5.5577641616       -5.9387634068        3.2429270296
 H        -4.5186425429       -6.9979886595        2.0484517551
 H        -7.4204191479       -3.4047308608        0.6259026624
 H        -8.6072369104       -4.4973962735       -0.1454534935
 H        -7.0287140908       -4.2831273350       -0.8645203885
 H        -7.9791080033       -6.6707903572        2.7260580504
 H        -7.9423326759       -4.8386319575        2.7641494696
 H        -9.0560406540       -5.6999118848        1.7792426638
 H        -3.3558758245       -5.4727500113        3.9919212077
 H        -2.8516474871       -5.0824148566        2.3001709780
 H        -3.7485707670       -2.4780986426        0.8493298232
 H        -2.6643898236       -1.1078870190        0.7896317439
 H        -2.5451556089       -0.5828287427        3.6194385167
 H        -4.0993964130       -1.3470388513        4.6350967444
 H        -4.1196978290       -0.8399751945        2.9480811684
 H        -1.4247736271       -3.8506344400        4.4017042758
 H        -1.2716013453       -2.2297533724        4.8313413575
 H        -2.5422840019       -3.1918700656        5.6837443332
 H        -2.4776530431       -3.4370921771       -0.9231847236
 H        -0.9822929467       -3.3662651593        0.0759641859
 H         0.3544474137       -2.4169877375       -5.1270022336
 H        -1.1831142512       -1.5707273479       -4.6651868170
 H         2.4097633462       -1.6202687905       -1.5057051869
 H         1.1046147159       -1.7635711460       -0.0982735220
 H         1.2021943086       -0.2473282600       -0.9538846797
 H         0.3742232813       -3.8843633901       -1.4636207892
 H        -0.3752672181       -3.8658059974       -2.9417568483
 H         1.2694628998       -3.6106932513       -2.9126405385
 H        -0.0158316439        0.6743634129       -5.4863302110
 H         1.0436053320       -0.3984468888       -6.2600083825
 H        -4.2418847831        0.0111649762       -6.9951293407
 H        -3.3254217387       -0.4913061051       -5.6432905752
 H         0.0128755997        1.4881702700       -7.9761355690
 H        -1.1501811770        1.9911405301       -9.1908400157
 H         0.0747103176        0.6985174611       -9.3775355100
 H        -3.4420561279       -0.4281228662       -9.0871197925
 H        -1.9266513882       -0.9500324473       -9.7503485777
 H        -2.5139480651       -1.7920533159       -8.5109017987
 H        -5.2283316536        0.7955880219       -4.8535940808
 H        -4.5544579813        2.1807290728       -5.9402857414
 H        -0.9140880578        4.6567240154       -4.1414203451
 H        -2.0379598891        5.8622226206       -3.8290899070
 H        -3.0234889622        4.3105980632       -5.8000454380
 H        -3.9858524774        5.4461775159       -4.6634263785
 H        -4.6086239801        4.1873483857       -5.5675538033
 H        -5.2303756306        4.3658186290       -2.8499063322
 H        -5.6659156635        2.9747986191       -3.7163850635
 H        -4.8359377514        2.5982721871       -2.2234661209
 H         0.0761656266        6.3364285106       -2.3052452457
 H        -1.3498721311        5.8609772392       -1.1712722976
 H         0.2165770687        4.0145147135        2.8003136411
 H         0.3882910287        2.4705663924        2.8020091290
 H         2.7719598154        4.5134688767       -1.5615751071
 H         2.4983146784        2.9205407794       -0.8280844902
 H         3.1925478015        4.2396761609        0.1623855833
 H         1.4048208409        6.1386447526        1.1123460772
 H         0.8714316879        6.5946723813       -0.4360338573
 H        -0.1018047322        5.7781611446        0.7845502213
 H         2.4385654611        3.3224484419        3.6665119901
 H         2.9404869819        4.1710128562        2.1538976164
 H         4.0156710557       -0.3557602556        4.7190234927
 H         5.3496595526       -0.4405207916        3.6368848576
 H         4.3518425039       -0.3543589770        1.8583758865
 H         5.8891484412        0.3298343021        1.4511672033
 H         4.7037647920        0.8670024724        0.5859352731
 H         6.3090689628        2.7972989505        2.5924054422
 H         5.2830514418        3.3978094142        1.2589321035
 H         4.9125283362        3.7902000050        2.9439306587
 H         5.3640018055        0.6164592501        6.3514775281
 H         6.0339748884       -0.8506929678        5.7838634347
 H         8.7705906034        4.0362542114        6.7751333619
 H         9.9934621067        3.2476679153        7.6465594680
 H         9.7450747969        2.8857811637        5.9283127762
 H         8.5807872263       -0.5135677983        8.1632066856
 H         8.2927953447       -1.4670889519        6.8355253337
 H         7.0103087786       -0.4907419885        7.4635441828
 H        10.5068398227        0.3030492799        6.4002117382
 H         9.7753469514       -0.6848097646        5.1847943268
 H        10.0339880604        1.0377986532        4.9048251717
 Na       -1.0703577008        1.5953089839       -1.8792359972
