155

 C        -8.3207685916       -6.7653651263       -0.4242016275
 C        -8.1930574243       -6.2509277601        0.9991404988
 C        -7.7353559647       -4.8135069501        1.3542533862
 C        -6.1758302362       -4.6555349059        1.3785220104
 C        -5.4373828468       -5.6721141710        2.3376410844
 C        -8.2997052327       -3.8325663192        0.2157925931
 C        -8.1644935593       -4.3969239844        2.7726432750
 O        -8.6229004902       -6.9269889264        1.9291742795
 O        -5.5408581607       -3.7486867028        0.9452343254
 C        -4.0120771729       -5.3086856971        2.5760339589
 C        -3.8670586054       -4.0198013923        3.4205411151
 C        -2.5532695105       -3.1686182500        3.2150099058
 C        -1.7844260553       -3.5694037641        1.8681694439
 C        -2.2808754881       -3.0077401207        0.5662880163
 O        -4.6514923682       -3.6605739427        4.2472562659
 O        -1.0613166126       -4.5127600420        1.8262819334
 C        -2.9414602468       -1.6684478876        3.1700544039
 C        -1.6521924465       -3.5688402086        4.4566562822
 C        -1.1567007736       -3.1470126073       -0.5791809028
 C        -0.6528531415       -1.8332844573       -1.2822554089
 C         0.4608880358       -1.8555050048       -2.3627157952
 C         0.1429937078       -0.8219743863       -3.6268356606
 C         0.4929689898       -1.2918904555       -5.1514366952
 C         1.7284084402       -1.3429226423       -1.5962298704
 C         0.9311594118       -3.2559323075       -2.8087139092
 O        -1.0841796213       -0.7078144769       -0.9657468627
 O        -0.4093155325        0.2029636025       -3.3879371809
 C        -0.0824398515       -0.2861879865       -6.1470329647
 C        -1.6343782359       -0.6049684975       -6.3336073726
 C        -2.4380884886        0.1840695584       -7.3993839479
 C        -3.4261097259        1.1959777983       -6.6926285551
 C        -4.4872678697        0.5818546613       -5.8647075475
 O        -2.1531866505       -1.4448238017       -5.6533936130
 O        -3.0510073981        2.3461619846       -6.6343664675
 C        -1.4602437168        1.0587479782       -8.2420263725
 C        -3.3610406980       -0.6856475754       -8.4022565001
 C        -4.8903537735        1.6203162380       -4.8107697297
 C        -3.7408365915        2.1393348205       -3.9875579116
 C        -3.9834736858        3.5691612224       -3.2471417737
 C        -2.7470231925        3.9015999639       -2.5396637801
 C        -1.6477982160        4.7126734218       -3.3385722953
 C        -4.4032781574        4.6840343869       -4.2235062913
 C        -5.1120784041        3.4556806785       -2.1701793946
 O        -2.7200666723        1.5137051800       -3.8507275747
 O        -2.5121599037        3.6213968696       -1.3996832739
 C        -0.5195180553        5.2516231083       -2.4430759665
 C         0.1451692205        4.2075228450       -1.5496107770
 C         0.6536660810        4.6253218491       -0.1696095347
 C         0.9970519448        3.2580799141        0.6825400594
 C         2.1218403446        3.4092222323        1.8082960625
 O         0.5828885514        3.2107842962       -2.0365620159
 O         0.2995444650        2.2773808084        0.5594645614
 C         1.8548967162        5.6024663235       -0.2083573529
 C        -0.6258428553        5.1966734201        0.6027437931
 C         3.5655879961        3.2343255433        1.2537153621
 C         3.8845606503        1.7654116118        1.4263611545
 C         5.4336163343        1.2869546953        1.5797280709
 C         5.6297960106        1.1222322699        3.1037206048
 C         5.8727492886       -0.1671941427        3.7584097441
 C         5.4108524795       -0.1081160269        0.8680120461
 C         6.4104717523        2.3728077074        1.0992037866
 O         2.9296958447        0.9204222983        1.5338850742
 O         5.5993252752        2.0957307701        3.8117674025
 C         6.6396214818       -0.2217062083        5.1675824152
 C         8.0770320191        0.2717088917        5.0191173552
 C         8.9027528110        0.9095983349        6.2985827978
 C         8.2822187993        2.2743628647        6.6178183342
 C         9.1820847231        3.4988633467        6.6069833598
 O         8.6071287707        0.2699243905        3.9167586733
 O         7.0382555573        2.3560354823        6.7712826259
 C         8.8100138847       -0.1474769897        7.4217986112
 C        10.4252028826        0.9779316455        5.8518919199
 H        -7.4324100978       -6.5249469970       -1.0088739187
 H        -8.5282241753       -7.8511845999       -0.4364101571
 H        -9.2055304979       -6.2505073785       -0.8189124195
 H        -5.9700896153       -5.6092889729        3.2421256461
 H        -5.5530939866       -6.7056629307        1.9723637052
 H        -8.1884241933       -2.7910298741        0.4928893474
 H        -9.3839806001       -4.0486459328        0.1526182767
 H        -8.0019949138       -4.0081828848       -0.7875543940
 H        -8.6681316327       -3.4550424337        2.8439006666
 H        -8.7514260495       -5.2764007805        3.2016590866
 H        -7.3865874312       -4.3243924153        3.5114136131
 H        -3.4947872235       -5.9958311920        3.2641844904
 H        -3.2314176214       -5.3832575714        1.7352641340
 H        -3.1696513971       -3.5102105881        0.1422639822
 H        -2.5471089237       -1.8949225414        0.7112315415
 H        -2.0088295742       -1.1960864156        3.3094416646
 H        -3.7261854726       -1.4483664110        3.8228525286
 H        -3.1968624907       -1.2825318988        2.1965957742
 H        -2.1486419543       -3.2238896217        5.3626566648
 H        -1.4128770868       -4.6225624657        4.4416685810
 H        -0.6863705873       -3.0703021806        4.5157280482
 H        -1.6252162375       -3.6868415835       -1.4187940887
 H        -0.4998425198       -3.9076757324       -0.1339893150
 H         1.5667986686       -1.3093140281       -5.3144231188
 H         0.1856161912       -2.3002760605       -5.2906405760
 H         2.4643643443       -1.0847340400       -2.3050682639
 H         2.0030135128       -2.0959809761       -0.9084590802
 H         1.5562185518       -0.5098210697       -0.9691649898
 H         1.0405103660       -3.8061228538       -1.8269131448
 H         0.2682424429       -3.8582068845       -3.3531104683
 H         1.8932167107       -3.1568699481       -3.3403275730
 H         0.0147858820        0.7382468437       -5.6720779560
 H         0.5000440919       -0.3327309658       -7.1234784071
 H        -5.1714981508        0.0791261446       -6.5668671808
 H        -3.8767634752       -0.1035465520       -5.1939877940
 H        -0.5792724420        1.4623698227       -7.7718162971
 H        -2.0361404708        1.7823686190       -8.7637776690
 H        -1.0417731364        0.3596042531       -8.9357080817
 H        -4.2440436118        0.0119503146       -8.4741952849
 H        -2.9744457457       -0.9397170585       -9.3374103757
 H        -3.6378855372       -1.6230943242       -7.9323439242
 H        -5.5480266249        1.0324657597       -4.1977104480
 H        -5.4674512508        2.4730612437       -5.1697547905
 H        -1.1607170543        4.0003538438       -4.0250509748
 H        -2.1339770508        5.5533255568       -3.8826131423
 H        -3.8966650889        4.6002516700       -5.1446204953
 H        -4.2301224135        5.5314177926       -3.6918601302
 H        -5.4867399316        4.6335819589       -4.4491054752
 H        -5.5688031214        4.3848077096       -2.0920509318
 H        -5.8737130138        2.7932717366       -2.6182504245
 H        -4.6903392393        2.9631805235       -1.3412551987
 H         0.2417795164        5.6136373304       -3.1234038685
 H        -0.7973836590        6.2033717097       -1.9516232696
 H         2.0989043795        4.3563810975        2.3626831972
 H         2.1593275180        2.6337982900        2.5918811912
 H         1.5973024365        6.4113005306       -0.8246471050
 H         2.6470956987        5.1406115575       -0.6406285711
 H         2.1657687868        6.0222308932        0.7788472160
 H        -0.3732378586        5.5572420833        1.6461580284
 H        -0.9792417124        6.1321888687        0.0653722038
 H        -1.3246389983        4.3711312894        0.7512508314
 H         4.3398243458        3.8013257921        1.7367299906
 H         3.7679080791        3.4606631265        0.2337285513
 H         4.8503623635       -0.6577627963        4.0053594254
 H         6.2807170570       -0.9575395075        3.0175386981
 H         4.6391864042       -0.7175418267        1.3420774740
 H         6.3688870973       -0.6394410303        0.8769047078
 H         5.2702535627       -0.0182025964       -0.1969479978
 H         7.4168970499        2.0205190435        1.3417632912
 H         6.3535141250        2.3690909234        0.0166051771
 H         6.2795316842        3.3529214716        1.6037820763
 H         6.0259162784        0.3664539424        5.8729242272
 H         6.6759096885       -1.2158388979        5.5702392245
 H         8.7686705344        4.2962688407        7.2116001721
 H        10.1642763187        3.3196031144        7.0349630612
 H         9.2699720885        3.8765327203        5.5769482235
 H         9.4730386473        0.1149391642        8.2124960075
 H         9.2186772226       -1.0358224916        6.9838760616
 H         7.8443288191       -0.3100458467        7.8022143596
 H        11.1084951297        1.2445401327        6.7008196034
 H        10.6601943698       -0.0209855727        5.6259302432
 H        10.4672434843        1.5848896153        4.9642359024
 Na       -0.8682716293        1.4888894386       -1.4203840600
