155

 C        -9.7219026398       -5.4426641878        1.1655200715
 C        -8.9367271232       -4.6272858266        2.2102589829
 C        -7.9501559569       -3.6487811555        1.6983373761
 C        -6.5172307600       -4.4042594107        1.6373948597
 C        -6.0450450843       -5.3488076409        2.7980099265
 C        -8.2151366178       -3.1091857757        0.3191010190
 C        -7.6001794441       -2.4434918063        2.6358666065
 O        -9.0880367670       -4.8333523829        3.3821640599
 O        -5.7667767266       -4.2295472618        0.6860786221
 C        -4.5018491196       -5.5219151165        2.7579555046
 C        -3.7754446120       -4.2625330663        2.9249674876
 C        -2.2037765574       -4.1585713991        2.4457462461
 C        -2.1551494497       -4.0773689712        0.8625966168
 C        -2.7883479518       -2.7863042936        0.1477451516
 O        -4.4843942116       -3.2200943959        2.8878356059
 O        -1.6432303182       -4.9138480820        0.2251292363
 C        -1.7532117125       -2.7683937961        3.0186491690
 C        -1.3462283939       -5.3098935831        3.0050386807
 C        -2.2051778142       -2.6600373058       -1.2940062241
 C        -1.2667238303       -1.4434512350       -1.5125292711
 C         0.1021331696       -1.6177634481       -2.2848859312
 C        -0.2267998302       -0.8637049774       -3.7685253771
 C        -0.0386901248       -1.6782877596       -5.0899936324
 C         1.3104933890       -0.9580864782       -1.7337630259
 C         0.4091130466       -3.0787869516       -2.4853705417
 O        -1.5720894473       -0.3513235731       -1.1437044411
 O        -0.6818178925        0.2400334904       -3.7915822792
 C        -1.0164521472       -1.1375112250       -6.1851663029
 C        -2.4573440472       -1.0185755217       -5.7247342833
 C        -3.4996275927       -0.3354231235       -6.6120874682
 C        -4.1084779807        0.9822793380       -5.8028507633
 C        -4.8109473895        0.6334161140       -4.4838635054
 O        -2.6632638553       -1.4257880814       -4.5633324822
 O        -3.9355082128        2.1652318451       -6.1666051206
 C        -2.8076034751        0.2031478568       -7.9287923929
 C        -4.7465825879       -1.2191357833       -6.9409461095
 C        -5.2267156207        1.9963976179       -3.8359802225
 C        -3.8827253919        2.4870952825       -3.0774129925
 C        -4.1666933126        3.6941866628       -1.9811806669
 C        -2.7777626330        4.0021101357       -1.3271659902
 C        -2.0807760010        5.3293160351       -1.6301575473
 C        -5.0323467977        4.7889939889       -2.5640549972
 C        -4.9639224413        3.0080272540       -0.8926145430
 O        -2.7435126701        2.0103987788       -3.2490610654
 O        -2.3402102698        3.1849545463       -0.5725669070
 C        -0.8951579222        5.5187873484       -0.6962729037
 C         0.1795835948        4.5046208251       -0.7637306347
 C         1.3754213730        4.4332799893        0.2318483024
 C         1.6553362389        2.8979642334        0.6080299901
 C         3.0069944923        2.4677855186        1.2151226568
 O         0.2327263064        3.9125780514       -1.8356312116
 O         0.7668272554        2.0821652467        0.4708544316
 C         2.6145241177        4.9747162077       -0.6359376383
 C         1.1626820650        5.0626182769        1.5508873356
 C         4.0113639879        2.0300697261        0.1220981687
 C         4.5038621369        0.6276191302        0.3418477880
 C         6.0820332130        0.2860037358        0.1985269695
 C         6.6155136297        0.8443092672        1.4983518824
 C         7.4542652964        0.0264093750        2.4759588868
 C         6.3617280231       -1.3682864150        0.1818367307
 C         6.8567129581        0.9574391260       -0.9721177378
 O         3.6491024909       -0.1873063016        0.5700993775
 O         6.5392781599        2.0394213618        1.6027557539
 C         7.7291073583        0.6023359711        3.8760060019
 C         9.0969356070        0.7886112315        4.4462626261
 C         9.2711962006        1.2734183193        5.9835444096
 C         8.6917815173        2.6556507058        6.2410562491
 C         9.0222185565        3.7200204651        5.1030172435
 O        10.1213587970        0.6348373986        3.8080071419
 O         7.9787329819        2.9393982809        7.2114873842
 C         8.4926824109        0.3019088598        6.8818180159
 C        10.8158724151        1.2897703264        6.2761218339
 H        -9.6445391392       -6.4820988199        1.5270940041
 H       -10.7885967393       -5.1963094508        1.2801747327
 H        -9.3695581743       -5.4154514802        0.1322446183
 H        -6.3495917777       -4.8370988009        3.6877922302
 H        -6.5184932962       -6.3923210475        2.8420825641
 H        -7.5498639913       -2.2785581640        0.1668517747
 H        -9.2762779646       -2.7974448769        0.3429433139
 H        -8.0181586220       -3.7622303508       -0.4850358050
 H        -7.4828838764       -2.8264243132        3.7225635526
 H        -6.6351710026       -2.0989503499        2.2799478595
 H        -8.3473196517       -1.6455170932        2.5471327550
 H        -4.0344160146       -6.1664775282        3.4647919477
 H        -4.2811013391       -6.0242871320        1.8101848257
 H        -3.8418873654       -2.9475584342        0.2048079778
 H        -2.6338551810       -1.8844121350        0.7554562360
 H        -0.9350255160       -2.1554026348        2.5255630344
 H        -1.2271906215       -2.8297829640        4.0357105200
 H        -2.5754341046       -2.0989438283        3.1480822943
 H        -0.4446745615       -4.8499666741        3.3656046983
 H        -1.8002615457       -5.8649509781        3.8025036856
 H        -1.1025172672       -5.9826283774        2.1566310721
 H        -2.9918398238       -2.5728027586       -1.9605485900
 H        -1.6963780249       -3.6264818058       -1.4721929551
 H         1.0106753296       -1.5937609278       -5.4070899052
 H        -0.2340889028       -2.7495692171       -4.8791846999
 H         2.2420142052       -1.0413986342       -2.3042859034
 H         1.6752916381       -1.3984079074       -0.7075788132
 H         1.0506147796        0.0097995689       -1.4208631301
 H         0.5712892299       -3.4938816534       -1.5162484297
 H        -0.4819185710       -3.3571286421       -3.1253895509
 H         1.2960078771       -3.4012322896       -2.9802684136
 H        -0.6378456715       -0.1623162917       -6.5386042958
 H        -1.0419085346       -1.8042353587       -7.0061597111
 H        -5.7014855728        0.1040761973       -4.5492658887
 H        -4.1890774974        0.0657495533       -3.7729510332
 H        -1.7403920599        0.2045766910       -8.0119786615
 H        -3.1563388177        1.1978348817       -8.0997908999
 H        -3.2015442751       -0.3663151440       -8.7579865550
 H        -5.4223930934       -0.7891953222       -7.7390683446
 H        -4.4280804491       -2.1551306117       -7.2893808442
 H        -5.3714938294       -1.2239464405       -6.0449702450
 H        -5.9823123032        1.8252806047       -3.0227410742
 H        -5.5904547502        2.8233595925       -4.5017103818
 H        -1.7020672624        5.4443208694       -2.6561322302
 H        -2.8179603780        6.0580568273       -1.5260231712
 H        -4.4718433072        5.5370253942       -3.1556355958
 H        -5.4260409022        5.3878542133       -1.7494259192
 H        -5.8543984501        4.3847598261       -3.0617110397
 H        -5.3526208900        3.6354619984       -0.1216665408
 H        -5.8373935965        2.4363248137       -1.1818960868
 H        -4.2809680829        2.3600724795       -0.2940941516
 H        -0.4146143439        6.4582583265       -0.9235684882
 H        -1.2691539194        5.6774962864        0.3691203248
 H         3.3030051882        3.3447965663        1.6763426058
 H         2.6749197042        1.7864388934        1.9801515201
 H         2.6694068859        6.0411326796       -0.7418207091
 H         2.5097448924        4.4571314338       -1.6515814993
 H         3.5251172741        4.5990095874       -0.2672594400
 H         2.0487828109        4.7817881824        2.1653233385
 H         1.0113027564        6.1446754992        1.6410310711
 H         0.1927681742        4.7370372666        2.0785384315
 H         4.7052315095        2.8209574983        0.0160382707
 H         3.4401152472        1.9140500438       -0.9038475391
 H         6.8541357265       -0.8526628929        2.6896728453
 H         8.2616024927       -0.4218056951        1.9903218685
 H         5.7890243738       -1.9161564999        0.9255323984
 H         7.4102451606       -1.3527725248        0.3169674964
 H         5.9513099665       -1.9309239989       -0.6472699607
 H         7.9115533042        0.5454275253       -0.9542144185
 H         6.3572851072        0.6894628148       -1.9341223490
 H         6.8674801890        1.9928826039       -0.9097534482
 H         7.1439208911        1.5394168490        4.0648345018
 H         7.2656195630       -0.0686920387        4.6536127949
 H         9.4972368558        4.6309294343        5.5074381868
 H         9.7204975877        3.3498167741        4.3547251956
 H         8.1259995892        4.0342219453        4.5507370302
 H         8.7269877421        0.3514456373        7.9043994617
 H         8.6654164319       -0.7008526960        6.5350205579
 H         7.4462464723        0.4137693331        6.7861456558
 H        11.0596489803        1.7551472698        7.2717537333
 H        11.1853697897        0.2977735981        6.2558898268
 H        11.3556891533        1.8325083999        5.4718743132
 Na       -0.8459825847        1.7345892697       -1.6987961564
