155

 C         4.1462742037       -1.0246009400       10.3626238789
 C         4.7549962033        0.3313587026       10.1482032224
 C         6.2296053326        0.2766820557        9.5021123199
 C         6.0429442699       -0.2095978817        7.9378848318
 C         4.7626301167        0.4015371600        7.2180422832
 C         6.8695196530        1.6851966079        9.3017616469
 C         7.1843086040       -0.6322948497       10.2286883157
 O         4.1111536831        1.3081890447       10.4067662893
 O         6.8289170025       -0.9511363884        7.4362149752
 C         4.3324276761       -0.5313906384        6.0953629981
 C         3.4297684998        0.1014026557        5.0148011095
 C         2.8655831161       -0.7707450801        3.8068437702
 C         1.5145104153       -1.3568470033        4.2353860523
 C         1.0492225727       -2.6386485563        3.4081945993
 O         3.1960591550        1.2802148093        5.0384421843
 O         0.7829526381       -0.9563167858        5.0918389329
 C         2.6120399226        0.0795062188        2.5658162560
 C         3.8907383702       -1.9151652317        3.2828867061
 C        -0.3825148323       -3.0355316401        3.6932338557
 C        -1.3702716615       -2.7330234650        2.5287201018
 C        -2.9034000659       -2.7953375169        2.8674129379
 C        -3.4270258784       -1.2946848713        2.9904677255
 C        -4.3274465311       -0.8868705974        4.1620275735
 C        -3.7190895742       -3.3746465159        1.6416676294
 C        -3.2827076515       -3.6029180083        4.1429769754
 O        -1.0014107850       -2.4816206554        1.3827838638
 O        -3.1251940203       -0.4146977642        2.1993017390
 C        -4.5352758718        0.6602543050        4.4001010175
 C        -3.2982477505        1.1657120255        5.1439857300
 C        -2.9222947160        2.7194481546        5.2385179501
 C        -2.6627509624        3.2391494659        3.7825229839
 C        -1.1963185542        3.6367498079        3.3706939829
 O        -2.6109367024        0.3143757813        5.6846471070
 O        -3.5718097649        3.3925771152        2.9620082544
 C        -4.1425405755        3.5783975272        5.7063728868
 C        -1.8038681366        3.0423633517        6.2794518302
 C        -1.1477217534        3.7884690899        1.7819446957
 C        -0.6550462780        2.5337333004        1.0180428610
 C         0.1698762625        2.7795934940       -0.3159604387
 C         0.4731491654        1.3897615251       -1.0904222733
 C         0.1133932882        1.3158234562       -2.5562505041
 C        -0.3351272155        3.8273339262       -1.2586218728
 C         1.6682044473        3.1111019697        0.0628573729
 O        -0.6761348566        1.4259920147        1.4737145590
 O         0.8400645611        0.3707889756       -0.5423395778
 C        -0.1068614449       -0.0898964923       -3.1402656318
 C        -1.5949274989       -0.4461749936       -2.9138532157
 C        -2.4241834726       -0.8085851364       -4.2557343641
 C        -1.9972393702       -2.1796058756       -4.9504707065
 C        -2.4933218180       -2.4990573117       -6.4093355372
 O        -2.2316502393       -0.2293291218       -1.8896755149
 O        -1.1312133059       -2.8640665028       -4.4591020010
 C        -3.9558988154       -0.8345268263       -3.8968572917
 C        -2.2514509122        0.4809189943       -5.1691568048
 C        -3.9846396038       -2.2533243236       -6.7145619789
 C        -4.3426422821       -2.4840268696       -8.1602206475
 C        -4.5363530359       -1.2599097935       -9.2021778410
 C        -3.2676702329       -0.3599992979       -9.0681665995
 C        -1.9454618279       -0.5600235176       -9.9715017890
 C        -4.7106080090       -1.9180641162      -10.6409679828
 C        -5.8921584410       -0.4653415812       -8.9339162808
 O        -4.4425669804       -3.6046552316       -8.5923698288
 O        -3.2478315929        0.5458521726       -8.2871108910
 C        -0.6837282492       -0.3636014271       -9.1064072413
 C         0.5515668564        0.1665404043       -9.8565363570
 C         1.7795434836        0.4281146093       -8.9947079899
 C         1.5677144299        1.5992089761       -7.9840973110
 C         2.2532516692        2.9396559549       -8.0757210746
 O         0.4696357206        0.4335146498      -10.9944873038
 O         0.8167317399        1.3584565070       -7.0482244184
 C         2.0863115924       -0.8007865550       -8.0933298810
 C         3.0742368774        0.6001259401       -9.8322368406
 H         3.6116217315       -1.2417158101        9.4105866689
 H         4.8351446355       -1.8739076991       10.6322829389
 H         3.3814199082       -0.9319992362       11.0516665266
 H         4.0751224200        0.5039953295        7.9902669928
 H         5.1914661065        1.3302325657        6.9273085315
 H         7.1836801039        2.0930374829       10.2868191428
 H         6.2549459946        2.3498607277        8.6976194737
 H         7.7927417995        1.6306688188        8.8005922847
 H         7.1441384314       -1.7583690647       10.0024070605
 H         8.1756874768       -0.5436623722        9.7576796446
 H         7.2394148871       -0.4638646749       11.2800053995
 H         5.3269065245       -0.8821378737        5.7036298869
 H         3.9444504741       -1.4889749380        6.4586831320
 H         1.2009808210       -2.5835857979        2.3557364283
 H         1.6709348309       -3.4920172500        3.8093797100
 H         1.8056760597        0.7748407323        2.7351152693
 H         2.4482177064       -0.5621775850        1.7517104514
 H         3.6117012441        0.5441905415        2.4102929876
 H         3.8446671059       -2.6922678346        3.9911481156
 H         3.6417682441       -2.2209663182        2.3204558845
 H         4.8478465939       -1.4905484111        3.2592605273
 H        -0.7162361094       -2.4741293241        4.5139240549
 H        -0.4350233087       -4.0871315864        3.9239519580
 H        -5.4262959580       -1.2939508728        4.1095664018
 H        -3.9191942076       -1.3072549143        5.1021934135
 H        -3.5291355185       -2.7153630604        0.7698843633
 H        -4.8640781383       -3.3429830255        1.6857382116
 H        -3.2888713774       -4.3036766830        1.3280629731
 H        -3.0300817824       -4.6309816366        3.9118561850
 H        -2.7239207447       -3.2680324992        5.0324023913
 H        -4.3440928077       -3.4735779846        4.4042737345
 H        -4.5254295471        1.0714492229        3.3932485953
 H        -5.4753179923        0.7730247586        4.9001093873
 H        -0.8056985161        4.4891899663        3.9473852029
 H        -0.6616971054        2.7037544872        3.5183299275
 H        -4.5312533140        3.1307170082        6.6526200464
 H        -5.0156518681        3.4910996861        5.0027056930
 H        -3.8722909489        4.6320667071        5.8652173275
 H        -1.9005736460        4.0575081234        6.7328065215
 H        -1.8347474598        2.4566996222        7.1773748731
 H        -0.7833014292        3.0512994562        5.8991499802
 H        -0.4375085129        4.5436046000        1.6493006052
 H        -2.0706892094        4.1640523207        1.3847721626
 H        -0.8762355469        1.8725894960       -2.5798266516
 H         0.7925426958        1.9129586545       -3.1348570968
 H        -0.0498634964        4.8039058081       -0.9762491074
 H        -1.4381379280        3.6783941428       -1.2816440807
 H         0.0837937728        3.7743788939       -2.2830389942
 H         1.7975751394        3.9713184393        0.7267077883
 H         2.2053263622        2.3343909347        0.5607966486
 H         2.2397969031        3.2735477308       -0.8796561805
 H         0.1270547417       -0.1426413317       -4.2169010772
 H         0.5975748130       -0.8443406448       -2.6887948648
 H        -1.9007023169       -1.6966907310       -6.9536642903
 H        -2.2219809751       -3.4629054837       -6.7852260419
 H        -4.5071798897       -0.6713611192       -4.7930790315
 H        -4.0178910123        0.0469998625       -3.1855403006
 H        -4.3786554187       -1.6450763853       -3.3358950735
 H        -2.5382993148        1.3189462324       -4.4724706880
 H        -1.2737228067        0.6380495331       -5.6693842204
 H        -3.0537336858        0.5695583450       -5.8415684976
 H        -4.2521834792       -1.1909147810       -6.5883158148
 H        -4.6173263530       -2.9242133311       -6.0472649627
 H        -1.7736214727       -1.5667124759      -10.4221157067
 H        -2.0016732179        0.3036799965      -10.6451288882
 H        -5.2812085208       -2.8093460146      -10.4378719963
 H        -3.7634952272       -2.1077934912      -11.0997232114
 H        -5.2973724062       -1.1560714923      -11.1828308117
 H        -6.5970489427       -1.3255936138       -8.8374840791
 H        -5.8348710113        0.1058091908       -8.0493486927
 H        -6.1358646493        0.2356491851       -9.7698977088
 H        -0.9283143847        0.3996302588       -8.3504593885
 H        -0.4975603528       -1.3249459019       -8.5462142545
 H         2.1569064410        3.4304377845       -7.1198999458
 H         3.3424132600        2.9050927596       -8.2420278066
 H         1.7533383623        3.5307057876       -8.8927628253
 H         2.2834691704       -1.6609663825       -8.7481120596
 H         1.2968703093       -0.9219555100       -7.3375145121
 H         3.0153070167       -0.5255992042       -7.5278079886
 H         3.2565663538       -0.3142914018      -10.4830001211
 H         2.8853269977        1.3462997127      -10.6523281468
 H         3.9788118724        0.7678568559       -9.1896909581
 Na       -1.4877164936       -0.5936155705        0.4123455979
