155

 C        -9.7409883652       -5.0066270092        1.7093976976
 C        -8.9474742674       -3.8260474731        2.4264423880
 C        -8.0765618831       -2.8334773589        1.5626393442
 C        -6.6095077485       -3.5544834259        1.4470363837
 C        -6.0856087635       -4.0512268401        2.7784710647
 C        -8.7248011230       -2.6931072564        0.1773389892
 C        -7.8648322711       -1.4120206472        2.2110177929
 O        -9.1826058017       -3.6212341303        3.5937666246
 O        -5.9348583222       -3.8249408555        0.4507537099
 C        -4.6786189433       -4.7652939447        2.6838122551
 C        -3.5746226367       -3.8182076021        2.7784080842
 C        -2.1770062823       -4.2259639804        2.2563180502
 C        -2.0012357706       -4.1676441609        0.6046167601
 C        -2.9342480779       -3.3350777501       -0.2470751642
 O        -3.8070779901       -2.6404250105        3.1324474395
 O        -1.1233249993       -4.8625577079        0.2141907552
 C        -1.1144824873       -3.1635211630        2.7937848027
 C        -1.8342873795       -5.6364138739        2.8223996600
 C        -2.3709670271       -3.0524865174       -1.6963329481
 C        -1.2573851539       -1.8611982188       -1.7482948388
 C        -0.2418209777       -1.9417872830       -2.9088680879
 C        -0.2972760623       -0.4736912651       -3.6892781321
 C        -0.4212732767       -0.5945208189       -5.2464954370
 C         1.1250293119       -2.0316029841       -2.2354718104
 C        -0.4837591373       -3.0933872329       -3.8687288137
 O        -1.2907751006       -1.0488589894       -0.9030171348
 O        -0.2630579129        0.5890623738       -3.1952209267
 C        -1.7969947096        0.0047648717       -5.7566538796
 C        -2.9952753742       -0.7720608963       -5.3152400097
 C        -4.3942509828       -0.3286404850       -6.0241037406
 C        -4.5253178941        1.1746965449       -5.5822431400
 C        -5.1465610505        1.4059196512       -4.1509033081
 O        -2.9452537129       -1.7020123491       -4.5387621042
 O        -4.2072070317        2.1427465472       -6.1951133585
 C        -4.3638666337       -0.5362811758       -7.5653568968
 C        -5.6229096230       -1.0769922806       -5.3530449814
 C        -4.9369102104        2.7788765730       -3.6282854619
 C        -3.9723437033        2.6934933106       -2.3798162559
 C        -4.2755563434        3.6066676053       -1.0913074959
 C        -2.9807159588        3.6456855565       -0.2660198138
 C        -2.2545750226        4.9755619750        0.0903576230
 C        -4.8013560317        4.9693108919       -1.4688904765
 C        -5.3168558599        2.8462191373       -0.2804836924
 O        -3.2045049715        1.7478567047       -2.3704465144
 O        -2.6410454938        2.5904320588        0.2598489986
 C        -0.8787897989        4.6080646786        0.7282948908
 C        -0.0684315180        3.8861260442       -0.4019681798
 C         1.5013199941        3.7612863228       -0.3063732809
 C         1.8199491445        2.1526823684       -0.0085509437
 C         3.2218401454        1.7458238972        0.5009203016
 O        -0.6481733078        3.4051899983       -1.3748468056
 O         0.9887287526        1.2771436466       -0.0546744733
 C         2.1776807600        4.0501474688       -1.7303605724
 C         2.2261913246        4.7372342069        0.7148165527
 C         4.2371487677        1.2341682638       -0.6159139860
 C         5.1743631070        0.1048028851        0.0106804612
 C         6.7062751352        0.0819618283       -0.1103861024
 C         7.1333472887        0.7763843960        1.2789640374
 C         7.5332862082       -0.0055368152        2.4655086965
 C         7.0959083538       -1.4510237533       -0.2064390152
 C         7.0857565893        1.0163919549       -1.3440118920
 O         4.6179466721       -0.6586682706        0.8313233676
 O         7.2462005729        1.9777182910        1.2026915918
 C         7.9043703074        0.9259128534        3.6617551046
 C         9.3069603837        0.7888755981        4.2228165629
 C         9.6755974478        1.5857791815        5.4935431933
 C         9.4001646202        3.1516501642        5.1908482705
 C         9.9421985595        4.0788004135        6.1863045903
 O        10.1082293051        0.0694478791        3.6215237035
 O         8.8824265531        3.4585252707        4.1121910174
 C         8.8739883918        1.0833947490        6.6748827332
 C        11.2464333735        1.4044513553        5.9155602603
 H       -10.5055600561       -5.4481855351        2.3629697413
 H       -10.1618174607       -4.7661539528        0.7380337023
 H        -9.0214035668       -5.8255214321        1.5804529921
 H        -6.1381025332       -3.1971739499        3.4804569612
 H        -6.7274834394       -4.8523502454        3.2093051662
 H        -8.1634746837       -1.9503762165       -0.3740322358
 H        -9.7813730561       -2.3924860966        0.3101644545
 H        -8.7068284380       -3.5358561442       -0.5176154181
 H        -7.3148961465       -1.5760923560        3.1516223530
 H        -7.3182016667       -0.8111723433        1.5260541770
 H        -8.7138368543       -0.8751469970        2.4590218147
 H        -4.6330722342       -5.4348948242        3.5625021762
 H        -4.7322233108       -5.3727807982        1.8680173359
 H        -3.8731050227       -3.9324536898       -0.3590215707
 H        -3.1728254506       -2.4297807832        0.1619403947
 H        -0.1248022398       -3.3622623889        2.4083476069
 H        -1.0794178968       -3.0980563725        3.9138414239
 H        -1.3419292371       -2.1409764725        2.3346202142
 H        -1.1742708942       -6.1805570287        2.1148442225
 H        -1.3074819461       -5.6288115578        3.7645594520
 H        -2.8222702238       -6.0814598808        2.9379261003
 H        -3.1524767701       -2.6990733532       -2.3353561108
 H        -2.0380258509       -3.9520620193       -2.1524027198
 H         0.4041040940        0.0142001676       -5.5979293068
 H        -0.3141652807       -1.6042314161       -5.6744959530
 H         1.9603684408       -2.0645403831       -2.8965663757
 H         1.1252818126       -3.0294210010       -1.7589865634
 H         1.2504930031       -1.2272974524       -1.4929831920
 H        -0.4567118044       -4.0664893863       -3.4292012646
 H        -1.4739664879       -2.8835737600       -4.4170232483
 H         0.3532441561       -3.2037564891       -4.5491941069
 H        -1.8814621269        0.9344202078       -5.2093714517
 H        -1.7620326518        0.2299836922       -6.7871522424
 H        -6.1388730489        1.2013676104       -4.3383114472
 H        -4.8485923654        0.6045579313       -3.5368388381
 H        -3.3878254826       -0.3964726882       -8.0727426259
 H        -4.9811195754        0.3055228885       -7.9883203644
 H        -4.7803870968       -1.5459736105       -7.7750199140
 H        -6.5936780327       -0.4951874186       -5.2957942361
 H        -5.9045279153       -1.9565472234       -5.8630213402
 H        -5.3338624689       -1.3434175785       -4.3382465433
 H        -5.9207650659        3.1356666266       -3.2236498784
 H        -4.5816069862        3.5410059457       -4.3398999907
 H        -2.1015210708        5.5738580396       -0.7699332365
 H        -2.9251531445        5.5774279536        0.7355542326
 H        -4.4034360608        5.3277232764       -2.4406348240
 H        -4.4481495411        5.6266306743       -0.7010325164
 H        -5.8389638361        4.9625200152       -1.4839549857
 H        -5.7063386905        3.4148602124        0.5267890638
 H        -6.2974312696        2.6722154359       -0.7370180635
 H        -4.8369681405        1.9561365429        0.2077681128
 H        -0.3779259034        5.5679243746        1.0070088831
 H        -0.9623653590        4.0283619722        1.6523447943
 H         3.8285715016        2.4073082119        1.1177283643
 H         3.1023666697        0.8766835914        1.1144474785
 H         2.3507382247        5.0849311012       -1.8079340129
 H         1.4968602993        3.6764958652       -2.4900201443
 H         3.0760924612        3.5584716220       -1.8317960602
 H         3.3093221457        4.7783006170        0.2876832938
 H         1.8530892916        5.8032583779        0.6955225860
 H         2.2183114183        4.3059016285        1.7902117047
 H         4.8197187072        1.8886195356       -1.2987146902
 H         3.4986924526        0.6958684200       -1.2454694504
 H         6.7477764703       -0.7154462147        2.7996173627
 H         8.4551510362       -0.5561941565        2.1132623306
 H         6.5849756726       -2.0408887598        0.5820528600
 H         8.1272023888       -1.5503462877        0.0629144134
 H         6.7567575915       -1.9702368173       -1.0848513347
 H         8.0628631571        0.6827018364       -1.7167047727
 H         6.4332926722        0.7731808156       -2.2129209664
 H         7.0659141882        2.0354144891       -1.1839436655
 H         7.8429812889        1.9459553859        3.1553028935
 H         7.0745772553        0.9112099663        4.4571900369
 H        10.1575596362        3.6379432860        7.1544880384
 H        10.9350901351        4.3029169510        5.8181073703
 H         9.3440181076        4.9786740995        6.3237203126
 H         9.2317241191        1.4222758511        7.6784353776
 H         8.8038720194       -0.0364505922        6.7136693676
 H         7.8000788416        1.3385895401        6.6389741093
 H        11.5456665845        1.9009445580        6.8769009201
 H        11.4019605550        0.3800270499        6.1589778823
 H        12.0335870812        1.6245619495        5.2148598290
 Na       -1.3346321389        1.1007834529       -0.9695607416
