155

 C        -9.4139109788       -4.9732339861        1.7368666595
 C        -8.9718646060       -3.6586777483        2.3782310339
 C        -8.1328324151       -2.6979373235        1.5383880231
 C        -6.6856728230       -3.5037290927        1.6216532675
 C        -6.1263177316       -3.9607098614        2.9075048649
 C        -8.5038665933       -2.5399348653        0.0391655743
 C        -7.8853899796       -1.3088848869        2.1966880052
 O        -9.0351727203       -3.3668567507        3.5567056669
 O        -6.1951871725       -3.6810458102        0.5271972155
 C        -4.7365598799       -4.7187434793        2.7357685449
 C        -3.5342387708       -3.7363893553        2.5526801191
 C        -2.1221816619       -4.1606641173        2.1282391994
 C        -2.0041176576       -4.1139475982        0.5943224493
 C        -2.9856332166       -3.2492802540       -0.1992421803
 O        -3.8281816126       -2.5696547722        2.6218940309
 O        -1.1075873328       -4.7181539416        0.0315205610
 C        -1.1619421911       -3.2068623688        2.7434959049
 C        -1.7516688684       -5.5506323622        2.5946969807
 C        -2.4933045458       -3.1345025112       -1.6014399529
 C        -1.4528403791       -2.0862355350       -1.7117019533
 C        -0.3419786383       -2.0820233450       -2.9757575589
 C        -0.5283445727       -0.7596225724       -3.8076821502
 C        -0.4929941329       -0.6436112025       -5.3645197470
 C         1.0706080295       -1.9710988826       -2.2858997979
 C        -0.4420506289       -3.3401164711       -3.9044972248
 O        -1.2727615704       -1.2289500287       -0.8010787625
 O        -0.4998039315        0.3570095220       -3.1739932585
 C        -1.8712426010       -0.0389279653       -5.8799830309
 C        -3.1267550846       -0.7084486456       -5.3097922145
 C        -4.5597702784       -0.2330832251       -5.7504804426
 C        -4.6631133794        1.1578339184       -5.2448995932
 C        -5.5232609950        1.5282358584       -4.0224202775
 O        -3.0619932454       -1.6572209294       -4.5225732419
 O        -4.1268373347        2.0922218634       -5.8832734901
 C        -4.6812931970       -0.1208292796       -7.3366664101
 C        -5.5432244635       -1.3003968436       -5.1905208742
 C        -5.0367492792        2.8012116122       -3.3770118155
 C        -3.9286084919        2.6622199665       -2.2735590519
 C        -4.1686989282        3.5352058157       -0.9815347978
 C        -2.9155902168        3.5140028929       -0.0125401333
 C        -2.1156191867        4.7758964962        0.3427446093
 C        -4.5840336631        4.9761305600       -1.5275322462
 C        -5.2974968176        2.8936585234       -0.1126292233
 O        -2.9770718161        1.9539181189       -2.3961635537
 O        -2.5581287068        2.4396448455        0.4391417656
 C        -0.7356985636        4.4014814631        0.8043281926
 C        -0.0098912150        3.7447492070       -0.4061587948
 C         1.5746828378        3.5844370319       -0.3774010449
 C         1.7857872921        2.0875004700        0.1210661488
 C         3.1764469156        1.7598855237        0.5518285303
 O        -0.4796961652        3.4733548321       -1.4885838705
 O         0.9328958210        1.1940085086        0.1334614500
 C         2.0663908586        3.5640940371       -1.8597517602
 C         2.2838443311        4.5481830949        0.6900532154
 C         4.0698090156        1.0120366732       -0.5562461451
 C         5.1183382960        0.0415692057        0.1027965424
 C         6.6568442589        0.2213204551       -0.1679921782
 C         7.0654012597        1.0841182602        1.1476021562
 C         7.5540796309        0.0858036538        2.2812284952
 C         7.1689286579       -1.2798848634       -0.1674810273
 C         7.1201704330        0.7751571246       -1.4329543613
 O         4.6653525300       -0.6798606748        0.9376903295
 O         7.2395921336        2.2909301501        1.1902167657
 C         7.9280451272        0.8198934558        3.5801687730
 C         9.3317572593        0.6561970344        4.1040368440
 C         9.7842670361        1.6287032927        5.2804795618
 C         9.5940793668        3.2024571729        5.0583775371
 C         9.9302175341        4.1740849834        6.3504073657
 O        10.1028793422       -0.1189211980        3.6176691768
 O         9.3517735753        3.7064496800        3.9931421916
 C         8.6953664659        1.3066856572        6.4098107285
 C        11.1971272600        1.3134350273        5.6447802978
 H       -10.4901401687       -4.9800309676        1.9102760154
 H        -9.2653099141       -4.9438194313        0.6488531752
 H        -9.1441399824       -5.9248701698        2.2215563506
 H        -6.1470813433       -3.0449141247        3.5435899132
 H        -6.7839608240       -4.6700232141        3.3808547670
 H        -7.7694046148       -1.8989016360       -0.4750514780
 H        -9.4925704184       -2.1883060806       -0.1772724307
 H        -8.3464514277       -3.4853773376       -0.4826270770
 H        -7.0757858875       -1.1060840333        2.8519384150
 H        -7.8048182792       -0.6131253067        1.3117673116
 H        -8.8335268737       -0.9477336881        2.7097685385
 H        -4.5901846469       -5.2553419564        3.6645190598
 H        -5.0247185044       -5.5239500716        1.9426936894
 H        -3.9763778987       -3.6709678420       -0.1524842917
 H        -3.0170380575       -2.1487470513        0.2255801883
 H        -0.2917872362       -2.9860901771        2.0336361526
 H        -0.7492806306       -3.5868586100        3.6840071861
 H        -1.5834792948       -2.2839667384        2.9041233900
 H        -0.6878723624       -5.6147876206        2.6394680985
 H        -2.1084304268       -5.7397763614        3.6187426764
 H        -2.1853636981       -6.2589910793        1.9408408212
 H        -3.2145960278       -2.8513123908       -2.4325940848
 H        -1.9994427397       -4.0690836897       -1.9398395478
 H         0.2633254786        0.1065306560       -5.6380508006
 H        -0.3309414228       -1.6257152129       -5.7945226027
 H         1.8321774520       -1.9856818963       -3.1746798862
 H         1.3924126630       -2.8942414691       -1.7650361261
 H         1.1918357481       -1.0765588070       -1.7137396540
 H        -0.0937979125       -4.1886097935       -3.3083424472
 H        -1.3260994683       -3.4318389380       -4.4186800226
 H         0.3315287133       -3.3710151754       -4.7040121409
 H        -1.8806216890        1.0735911089       -5.7849937975
 H        -1.8492374916       -0.2540617163       -7.0229281851
 H        -6.5224234645        1.5435239551       -4.6228459017
 H        -5.6685484804        0.6033635231       -3.4100918297
 H        -4.3695449657        0.8937363055       -7.6243207832
 H        -5.6780082616       -0.3170338028       -7.7308227066
 H        -3.9780347405       -0.8354822852       -7.7649312277
 H        -6.5459045729       -1.0834295232       -5.4362517541
 H        -5.3522533351       -2.2537964239       -5.7694041659
 H        -5.5410081416       -1.4212412816       -4.1029738346
 H        -5.8884608949        3.3414306601       -3.0020168225
 H        -4.4931376420        3.4931997545       -4.0423399998
 H        -2.1089588967        5.4510033536       -0.5520846060
 H        -2.6379363655        5.3404419768        1.0935405001
 H        -3.8719254397        5.3132109547       -2.2499840091
 H        -4.6270077637        5.7772098332       -0.8040737153
 H        -5.6555105806        4.8170348703       -1.9121139377
 H        -5.7001375182        3.4999990258        0.7215044118
 H        -6.1622998683        2.8779342544       -0.7487027746
 H        -5.1076264441        1.9896610918        0.3585171048
 H        -0.1868339646        5.2684291466        1.1650181986
 H        -0.8173903702        3.7339795867        1.6795496918
 H         3.8774685985        2.5507836060        0.8093011697
 H         3.1916400468        1.0708609768        1.4038992346
 H         1.5713142782        4.3473913027       -2.4034369012
 H         1.9541039254        2.5473259671       -2.3227464107
 H         3.1442991294        3.7916263015       -1.8111986927
 H         3.2398437638        4.7215351857        0.4182137292
 H         1.7566164702        5.4958244313        0.6984790093
 H         2.1370892273        4.1834706482        1.6783155585
 H         4.6452748641        1.6358904134       -1.2675362336
 H         3.4303230437        0.3352713035       -1.0951537931
 H         6.7730927744       -0.6193222587        2.5042651546
 H         8.4552533904       -0.3667538760        1.9554383039
 H         7.0777407918       -1.9931958509        0.6225597991
 H         8.1743189292       -1.3608784254       -0.5941064210
 H         6.4152489927       -1.6728263093       -0.8666695416
 H         8.1137574927        0.4651732592       -1.6748279433
 H         6.4451738266        0.6019013005       -2.2429932411
 H         7.1002853755        1.9292631464       -1.3075123924
 H         7.7193972492        1.8622652303        3.3874187090
 H         7.2607669141        0.4795323728        4.3326798982
 H         9.8632009395        3.6945627308        7.3331030425
 H        10.9735100606        4.5445857064        6.3581818722
 H         9.2212047221        5.0190293556        6.3090253826
 H         8.9255840289        1.6923791392        7.3995768467
 H         8.6078607743        0.2406299254        6.5797647291
 H         7.6468111000        1.5875421918        6.1837409571
 H        11.5324370678        1.5159827814        6.6197516542
 H        11.4977072938        0.2640945670        5.3682130472
 H        11.8615099689        1.8454535718        4.9597818417
 Na       -1.2042138203        1.1237243501       -0.9773637601
