155

 C        -9.6175632165       -4.1814912364        2.0860845145
 C        -9.1450131046       -2.7715529236        2.2785874761
 C        -7.7951425106       -2.3532743737        1.6531061639
 C        -6.7861663304       -3.5416358498        1.7565895959
 C        -6.0438801857       -3.7111848914        3.0750073061
 C        -8.1007196608       -2.0701039965        0.1489574658
 C        -7.4241941883       -1.0655798116        2.3770146175
 O        -9.7648989606       -2.0161381010        2.9551881741
 O        -6.5282840570       -4.2529392111        0.7956806160
 C        -4.6243780985       -4.2719110617        3.0207463608
 C        -3.6049344606       -3.2984975026        2.3678234194
 C        -2.1852264761       -3.8810021831        2.0223126989
 C        -1.8885882811       -3.9246469265        0.4877843675
 C        -3.0108094188       -3.3707575503       -0.4608145983
 O        -3.9081481127       -2.1403019813        2.0147199158
 O        -0.7953308092       -4.1868554115        0.0227918078
 C        -1.0601795321       -2.9412164808        2.6848271635
 C        -1.9218895198       -5.2669869109        2.5936829982
 C        -2.4324060172       -3.5112817313       -1.9103869108
 C        -1.8411910229       -2.1234387451       -2.2919817276
 C        -0.6667635156       -2.1228112848       -3.3028318728
 C        -0.8482906240       -0.7818566422       -4.1806243128
 C        -1.3718069252       -0.9223803581       -5.5713610687
 C         0.6475834307       -1.9329492903       -2.4809746402
 C        -0.6220092272       -3.4433479802       -4.1449919638
 O        -2.2164086310       -1.1103102766       -1.8416564415
 O        -0.6187362811        0.3289176543       -3.7517276464
 C        -2.7372299625       -0.2652584513       -5.8576310548
 C        -4.0244781910       -0.7365364479       -5.0496443565
 C        -5.3070161675        0.2644327400       -5.3451859014
 C        -4.9556135365        1.4298494355       -4.3467503120
 C        -5.7434805740        1.4816134463       -2.9543350238
 O        -4.1043500295       -1.8002714205       -4.5192340263
 O        -4.0481203356        2.1429476232       -4.5640473417
 C        -5.3448144774        0.9392253319       -6.8235601384
 C        -6.6305592182       -0.5218695386       -4.9448214193
 C        -5.4736340086        2.6695694063       -2.0321555925
 C        -4.1675343902        2.5095515408       -1.3257347835
 C        -3.8068405683        3.3343782351        0.0213760288
 C        -2.3847870728        3.0102120009        0.4808073195
 C        -1.5677393895        4.0783089529        1.1926182212
 C        -3.9944948329        4.8061555069       -0.2123055948
 C        -4.8686653182        2.8293509174        1.0827699863
 O        -3.3985778668        1.6342935067       -1.7035121245
 O        -2.0418007261        1.8101963877        0.5647463587
 C        -0.0788178860        3.8829169950        0.9833591858
 C         0.1851925524        3.2247702280       -0.3743722353
 C         1.6849644762        2.6593747644       -0.5647866429
 C         1.6827772284        1.1998865007       -0.1809829078
 C         2.9414175865        0.4106609030        0.3499138658
 O        -0.6435940656        3.2205791573       -1.2733282102
 O         0.7087285003        0.4611693280       -0.2302698100
 C         1.9215832069        2.8937657063       -2.1620671804
 C         2.7048905063        3.5419499842        0.2017984287
 C         4.2322816106        0.4681769501       -0.4215918853
 C         5.3435811118       -0.2957086910        0.2113363636
 C         6.8289195047       -0.1670742510       -0.4037560222
 C         7.3019359180        0.9802572136        0.5774955098
 C         8.4244363193        0.7163341194        1.5979413201
 C         7.5694918842       -1.4805959311       -0.3405132068
 C         6.7589000097        0.2646503952       -1.9467109770
 O         5.1315008229       -1.2014583027        0.9862150973
 O         6.6955019734        2.0342646764        0.4846988231
 C         8.9702544311        1.8433430234        2.5205433537
 C         9.7491720863        1.2738210002        3.6805314842
 C        10.0942092644        2.1373976712        5.0844324834
 C        10.5734142814        3.6104994204        4.7564693145
 C        10.7123445797        4.5075301841        5.9267517901
 O        10.0669556246        0.1127510283        3.6142316752
 O        10.9681921551        3.9397325182        3.6571612145
 C         8.8070536674        2.1113744985        5.9565487252
 C        11.2605148539        1.2423270303        5.7292705114
 H        -9.6570936227       -4.4198530865        1.0188322645
 H        -9.0015328837       -4.9173412357        2.5907292026
 H       -10.5266610603       -4.2586396426        2.6716444234
 H        -6.2922605344       -2.8069338311        3.7896017019
 H        -6.6179054132       -4.5464412982        3.4593155884
 H        -7.2161898017       -1.6711397632       -0.2741689837
 H        -8.9210648764       -1.4173014491        0.0874630278
 H        -8.2682675368       -2.8986495265       -0.5415794670
 H        -6.3133335907       -0.8241727549        2.2975482199
 H        -8.1177059648       -0.2434891133        2.0454342238
 H        -7.4698137964       -1.2002131502        3.4607051437
 H        -4.1755130156       -4.4628105089        3.9553722862
 H        -4.5834830232       -5.1705677971        2.4033684512
 H        -3.9141384219       -3.9697427541       -0.3429286827
 H        -3.3985440075       -2.3762138557       -0.2441542704
 H        -0.2452617249       -3.5234322150        2.8700670518
 H        -1.4864211707       -2.6730626844        3.6476427058
 H        -0.7034736093       -2.0577249284        2.0326611755
 H        -0.8540566986       -5.5589664132        2.4885708896
 H        -2.0816535432       -5.2890018315        3.6684797508
 H        -2.5986597471       -5.9717705782        2.1931671221
 H        -3.1580853532       -3.8550928528       -2.6375502150
 H        -1.6505245044       -4.2064879192       -1.8984049604
 H        -0.5989142634       -0.4542550450       -6.2404957304
 H        -1.4483848939       -1.9692470565       -5.8703782887
 H         1.4888391461       -1.9719920529       -3.0568505748
 H         0.6405348591       -2.6763126626       -1.6971491754
 H         0.5662639579       -0.8728408351       -2.0804851139
 H        -0.3721617445       -4.2123826515       -3.4398483657
 H        -1.6691206302       -3.6714639425       -4.5313144954
 H         0.2053292352       -3.5725989615       -4.8745897938
 H        -2.6702633359        0.7440306065       -5.6710750407
 H        -2.9336334288       -0.2998204747       -6.9464978553
 H        -6.7755229448        1.4451453111       -3.2524177641
 H        -5.4774596902        0.5945422214       -2.4944192087
 H        -5.1021355336        1.9676847046       -6.7696525149
 H        -6.3677106278        0.9914476346       -7.0922481619
 H        -4.7947127591        0.3654716380       -7.5144025198
 H        -7.4548592648        0.1911382036       -5.0576416887
 H        -6.9728999587       -1.3260747435       -5.5803982773
 H        -6.6406230933       -0.8867615183       -3.9299479349
 H        -6.3051038391        2.9549578340       -1.4052062337
 H        -5.3788652543        3.5167531261       -2.7567934614
 H        -1.8367701224        5.0717714008        0.8732786872
 H        -1.8887621940        3.9621386573        2.2507419339
 H        -3.2053777468        5.1654333018       -0.9760611586
 H        -3.9188893348        5.4369723275        0.7110182453
 H        -4.9394809701        5.0511345294       -0.6784796649
 H        -4.9929770093        3.4082675266        1.9561679064
 H        -5.9048841799        2.9852495132        0.6432107448
 H        -4.6753158198        1.7285091562        1.3117890827
 H         0.3774821534        4.8921730699        1.0417344389
 H         0.4148767642        3.3210767976        1.7574875133
 H         3.0701020154        0.8681734021        1.3578611922
 H         2.6120301574       -0.6099819845        0.5402113264
 H         2.0437123631        4.0418374679       -2.2417882332
 H         1.0125877694        2.6447728580       -2.6974950564
 H         2.7810592855        2.4105553625       -2.7287954166
 H         3.7428417601        3.4330768952       -0.2446459849
 H         2.5383089843        4.6000102269       -0.0052259502
 H         2.7909693023        3.4240127104        1.3074621008
 H         4.7267334477        1.5327443527       -0.4532001774
 H         4.2624923421        0.1234845058       -1.4449746966
 H         8.2497394725       -0.1872423975        2.2101425958
 H         9.2290172713        0.3545885380        0.9275236842
 H         7.8457735389       -1.5630432112        0.7553504064
 H         8.5071624810       -1.4722943312       -0.9026486274
 H         6.9708766064       -2.3700645113       -0.4848651587
 H         7.7787471976        0.2180898416       -2.3263879697
 H         6.3831506473       -0.5679873576       -2.5692449987
 H         6.3236840949        1.1886600293       -2.0926244244
 H         9.6358296950        2.6294930700        2.0237329103
 H         8.1316839513        2.4836860441        2.8817935446
 H        11.0641254017        5.4661504928        5.5551361361
 H         9.8247586291        4.4936427882        6.5469935781
 H        11.4519450933        4.0608993520        6.6102164139
 H         8.9992150198        2.7946423350        6.7640286098
 H         8.5850212001        1.1338773377        6.3248741661
 H         7.9924854230        2.4601632947        5.3876935998
 H        11.7804287364        1.7709480912        6.5595903641
 H        10.8223919499        0.3939588713        6.2725012381
 H        11.9714622281        0.9707184716        4.9716440359
 Na       -1.1333113465        1.0273112253       -1.7956547547
