155

 C        -9.4319712551       -3.9612161099        2.1803527707
 C        -9.0169126855       -2.4753472369        2.2466338906
 C        -7.7099126931       -2.1759194658        1.5914782585
 C        -6.6448964988       -3.3644510412        1.7842411256
 C        -6.0556778571       -3.7612751494        3.2211314026
 C        -8.0175965471       -2.0781348932        0.0921988161
 C        -7.2034827211       -0.8080146152        2.1742880119
 O        -9.7220189640       -1.6248297809        2.7986936161
 O        -6.4872374680       -4.1198198654        0.8779355996
 C        -4.7312141224       -4.4674342925        2.9657721069
 C        -3.7408305330       -3.4589382335        2.3867660512
 C        -2.2453466474       -3.8041752303        2.0700866246
 C        -1.9032316523       -3.7994350315        0.5227121396
 C        -3.0647681149       -3.7104292927       -0.5063969176
 O        -4.1640142691       -2.3277028760        2.1308765626
 O        -0.7033409772       -3.8580233969        0.1852497080
 C        -1.4178527048       -2.6691200761        2.7998269891
 C        -1.7825983694       -5.1404006466        2.7214677670
 C        -2.7110513027       -3.7695700367       -1.9742120792
 C        -2.0242403776       -2.3503238355       -2.3239859369
 C        -1.0131907690       -2.2967134651       -3.5366026580
 C        -1.1273764799       -0.9704542250       -4.3481067999
 C        -1.8037918540       -0.8809430962       -5.6853027722
 C         0.4108433916       -2.2008113036       -2.8387611803
 C        -1.1622992618       -3.5622092567       -4.3179990780
 O        -2.2747019617       -1.4094320495       -1.5904722709
 O        -0.6532145975        0.0418620261       -3.7779615107
 C        -2.7533205731        0.2470394205       -5.7260391010
 C        -4.1931477433       -0.3311657344       -5.1652421121
 C        -5.5269811467        0.4616753452       -5.2178196230
 C        -5.1904066576        1.5624612708       -4.0574696535
 C        -6.0438197584        1.5179542178       -2.8162004998
 O        -4.2150541099       -1.4115639835       -4.6365994906
 O        -4.6123032129        2.5994167491       -4.3484357773
 C        -5.8387445943        1.2898189397       -6.4368543822
 C        -6.6238258585       -0.5051239454       -4.8845696150
 C        -5.7101929090        2.6625174786       -1.7492402121
 C        -4.3040285546        2.4941972393       -1.1868714199
 C        -3.9421043406        3.1081851450        0.2904046325
 C        -2.4696700029        2.8075654437        0.7447715477
 C        -1.5035349819        3.9545014482        0.9393072189
 C        -4.2193868922        4.5806319707        0.0657490661
 C        -4.9211839430        2.5040155873        1.3687655882
 O        -3.5171945850        1.8160350272       -1.7830659098
 O        -2.1082812169        1.6469129571        0.9547194423
 C        -0.0557950963        3.3714611967        1.0706636699
 C         0.5346162664        3.1294798515       -0.3945061917
 C         1.9697531511        2.7050198281       -0.6178742484
 C         2.0078978654        1.1191839825       -0.3152975315
 C         3.2322634392        0.5194839465        0.4320644033
 O        -0.1818456415        3.2410427872       -1.4028289637
 O         1.1640660630        0.3581668436       -0.8010462332
 C         2.2941443785        2.7941146806       -2.0856645400
 C         3.0084894027        3.5806966029        0.1816528463
 C         4.3130544985        0.3158101749       -0.6304843606
 C         5.4655059309       -0.5646034800        0.0109316717
 C         7.0688114359       -0.3652489235       -0.3773335658
 C         7.5671073714        0.8957458097        0.6538634409
 C         8.8790940173        0.7463071082        1.3475739052
 C         7.7433089639       -1.8488586525       -0.0252006313
 C         7.3148747455        0.3423638400       -1.6780981094
 O         5.2754702916       -1.2459068544        0.9600143496
 O         6.9452320115        1.9408474463        0.5468712549
 C         9.0058647118        1.7547325243        2.4958798030
 C         9.9513933302        1.2348160581        3.6201765457
 C        10.0993684364        2.2246012469        4.8066921551
 C        10.7406738162        3.5767943485        4.2986503988
 C        11.2224388759        4.5717223254        5.4053065678
 O        10.4396503944        0.1492993098        3.6031509921
 O        10.7412071061        3.8762033099        3.1360006687
 C         8.6555679495        2.4982443056        5.4571451718
 C        11.0231980576        1.5405842056        5.9019665911
 H        -9.2441754483       -4.3716925276        1.1712692164
 H        -8.8289922875       -4.5852433459        2.8516587048
 H       -10.4421171880       -4.0693401644        2.5760609531
 H        -5.8297650538       -2.7934130681        3.7794056377
 H        -6.7183003191       -4.4379442423        3.6994658093
 H        -7.1652192338       -2.1075225536       -0.5733159176
 H        -8.6105364705       -1.1717873196       -0.0881168649
 H        -8.6282333771       -2.9353551812       -0.2342025578
 H        -6.9643302117        0.0341386702        1.4270312922
 H        -7.9831091499       -0.4392534908        2.8239116248
 H        -6.2985651583       -1.0137841067        2.7297415157
 H        -4.3157701552       -4.8041636771        3.9253169811
 H        -4.6248425113       -5.2647768038        2.1825932018
 H        -3.6524160628       -4.6398621039       -0.3481939984
 H        -3.7195394360       -2.8956004625       -0.2328349502
 H        -0.6461848908       -2.3153102413        2.1392854266
 H        -1.0742742703       -3.0975018889        3.6933498540
 H        -2.0929022728       -1.8266098891        2.9904534823
 H        -0.7799530701       -5.3591187814        2.2971672891
 H        -1.6547530368       -5.1480566037        3.7918295216
 H        -2.4547365606       -5.9690288134        2.5224742450
 H        -3.6800032668       -3.7581105787       -2.5344327058
 H        -2.1437315046       -4.6633259244       -2.2519706617
 H        -1.0099956731       -0.7474207410       -6.4976553580
 H        -2.3239890498       -1.8619323600       -5.7793005903
 H         1.1693770245       -2.3244678946       -3.5556813525
 H         0.5393115392       -2.9724593525       -2.1497611530
 H         0.4598180684       -1.1683546669       -2.4913499160
 H        -0.8017143420       -4.3655219008       -3.7603660673
 H        -2.1833119398       -3.6728889361       -4.7670654814
 H        -0.4994389256       -3.5534860207       -5.1856013300
 H        -2.3311966497        0.9735960508       -5.1205028309
 H        -2.8615422609        0.6125311394       -6.7518800625
 H        -7.0914488403        1.5457353604       -3.0546761019
 H        -5.9219143083        0.6054785716       -2.3152708890
 H        -4.9061990134        1.6997902743       -6.8591313650
 H        -6.4124022440        2.2204790739       -6.2095250946
 H        -6.3582609190        0.6300140228       -7.1569370386
 H        -7.5889908794       -0.0803748128       -4.4656114715
 H        -6.8600299172       -1.1742532197       -5.7005757067
 H        -6.1960275352       -1.0968620159       -4.0668938325
 H        -6.5560738463        2.6955984914       -1.0981365372
 H        -5.7665685601        3.6272106656       -2.2810647342
 H        -1.6376513821        4.6647029742        0.1278914359
 H        -1.7981280515        4.4477720645        1.9285666259
 H        -3.6314526293        4.9852819516       -0.8015032935
 H        -3.8994281731        5.2937890479        0.8872392209
 H        -5.2641221695        4.7324513990       -0.0065040352
 H        -4.6841224496        2.7485949098        2.3812857855
 H        -5.9049012632        2.8095206311        1.0515360462
 H        -4.7731817215        1.4301914433        1.4117271673
 H         0.6283977125        4.0556137900        1.6068465135
 H        -0.1655702115        2.4735895654        1.6494162489
 H         3.5563734384        0.9244251423        1.4081565584
 H         2.8961359928       -0.5106237535        0.6566017136
 H         2.1220706837        3.8231069294       -2.5169101230
 H         1.6228221417        2.1167903686       -2.5452366242
 H         3.3247080684        2.4908377917       -2.4235663024
 H         3.9494806146        3.3202520383       -0.1841546276
 H         2.7963052387        4.6456316941        0.2638053860
 H         3.0727320822        3.3939340869        1.1990616287
 H         4.8272357045        1.2485285433       -1.0537242080
 H         3.9031533967       -0.2886884661       -1.4556436323
 H         8.9915035272       -0.2606400758        1.6911436648
 H         9.6984088530        0.8785859088        0.6683272215
 H         7.1624918212       -2.3489782357        0.7615215414
 H         8.7885701909       -1.8076424037        0.3119644922
 H         7.5645952727       -2.5747915005       -0.7814396072
 H         8.3070498297        0.8823069003       -1.6325292534
 H         7.2550205165       -0.3310417516       -2.5846458731
 H         6.5501250572        1.0315527746       -1.8130172842
 H         9.3159682063        2.7443380945        2.1439366137
 H         8.1249845847        2.0956968469        2.9718287580
 H        11.9303952793        4.0396726779        6.0762571479
 H        11.5314155774        5.5218077965        4.9599015828
 H        10.3335158646        4.8422532743        5.9979132569
 H         8.6917780100        2.6591136435        6.5668818780
 H         8.1001055261        1.5415412407        5.2911975139
 H         8.2331532503        3.2936956544        4.8448051319
 H        10.8040086133        1.8557406657        6.9583389976
 H        10.7560851317        0.5083046909        5.7674663584
 H        12.0839429050        1.5461737207        5.6704131934
 Na       -1.4235366637        0.9048483416       -1.3924673244
