155

 C        -9.6691436630       -3.6847678921        2.2889860552
 C        -8.9633885759       -2.3435532340        2.3454592851
 C        -7.6673417614       -2.0700935084        1.4609732106
 C        -6.6543846386       -3.3219099292        1.6573538863
 C        -6.2610788602       -3.7946487544        3.0860168270
 C        -7.9602636230       -1.9334366172       -0.0584158565
 C        -6.9197983385       -0.7966042146        1.8827221118
 O        -9.4149478960       -1.4214828512        2.9922121998
 O        -6.2232633990       -3.8301765589        0.6192062790
 C        -4.8333740032       -4.2273941575        3.1125886995
 C        -3.8080340560       -3.2303584488        2.4700938138
 C        -2.3180472607       -3.6486411619        2.1399413388
 C        -2.0865319165       -3.6985610323        0.5708139578
 C        -3.2756261728       -3.8945518436       -0.2863942340
 O        -4.0887363831       -2.0228942433        2.2183503299
 O        -0.9274582852       -3.6452387192        0.1817836658
 C        -1.4293885799       -2.5834512459        2.8893029503
 C        -1.9497053197       -5.0586446135        2.5327474740
 C        -3.0876490459       -3.6598284003       -1.8200475653
 C        -2.2067022601       -2.4260610641       -2.0876516482
 C        -1.5839747599       -2.1358621278       -3.5961909402
 C        -1.8977444192       -0.7421073130       -4.0887192931
 C        -2.1240073830       -0.4148431232       -5.6269499769
 C         0.0310250244       -2.1842670421       -3.5425177512
 C        -2.0492825316       -3.3169253074       -4.5208649450
 O        -2.0446581780       -1.6475303089       -1.2018393695
 O        -1.5544688706        0.2529037981       -3.4649416267
 C        -3.2961436098        0.5354999572       -5.7286175521
 C        -4.5487892588       -0.0461486613       -4.9852093388
 C        -5.8349058304        0.7076461374       -5.0845938538
 C        -5.7920583148        1.8779934408       -3.9620924034
 C        -6.3081786910        1.6185508724       -2.4660220062
 O        -4.4107142121       -0.9338798877       -4.1820237783
 O        -5.2427278737        2.9000232656       -4.1975643227
 C        -5.9290867481        1.4780480583       -6.3468099534
 C        -7.0611408295       -0.1312675847       -4.9253908581
 C        -5.7525876511        2.5602368608       -1.3044663067
 C        -4.3315673333        2.1682468044       -0.8250149104
 C        -3.8018628886        2.7731718144        0.6144594603
 C        -2.2744969848        2.5634977246        0.5166707502
 C        -1.3675680855        3.7891055169        0.5433266313
 C        -4.3748922573        4.1593320834        0.9804745662
 C        -4.3073113013        1.7415324748        1.6036267701
 O        -3.6300815607        1.4265365983       -1.5211278408
 O        -1.8368068159        1.4313820027        0.7614503024
 C         0.1933531233        3.5038361972        0.6969623109
 C         0.7823218252        2.9187898476       -0.5765213549
 C         2.2736926737        2.4414587130       -0.6631721757
 C         2.2398511163        0.8650126504       -0.4092842244
 C         3.4918854190        0.2454606243        0.1931735583
 O         0.0178511279        2.8208514095       -1.5127357463
 O         1.2785377756        0.2587247276       -0.8861893266
 C         2.7661566353        2.7013614898       -2.0708629199
 C         3.0676746490        3.1467410650        0.3542123332
 C         4.7542995725        0.0573753696       -0.7844551406
 C         5.6860152162       -0.9125970585       -0.2219809082
 C         7.2436478940       -0.6469443402       -0.4416702921
 C         7.7278419080        0.5304971096        0.6167108542
 C         9.0004555575        0.3779438372        1.5242615355
 C         7.9115155178       -2.0783271225       -0.2358692068
 C         7.5752068669       -0.0718056232       -1.7528946969
 O         5.3595253495       -1.8072281768        0.5517776168
 O         7.3384402299        1.6404214811        0.4105155493
 C         9.0816163102        1.5914452080        2.4561515168
 C        10.0712580389        1.4439539939        3.5143110663
 C        10.1991425699        2.6180242551        4.6880199598
 C        11.0057610884        3.8630497019        4.0613385450
 C        12.2123610308        4.6080751182        4.7901009941
 O        10.8517470760        0.5262607736        3.5883864733
 O        10.7906987081        4.1788089376        2.9250866795
 C         8.8407822562        3.3314205678        5.0520608357
 C        10.9090388712        2.0288477852        5.9038873752
 H        -8.9324292165       -4.4374128106        2.0048876198
 H        -9.9508987412       -4.0056760736        3.2951707587
 H       -10.4472939795       -3.8357625683        1.5246021358
 H        -6.6265369343       -3.0302511708        3.7929175302
 H        -6.8916876390       -4.7370719359        3.1823953523
 H        -7.0424583216       -1.8199363746       -0.6332568788
 H        -8.5428248079       -1.1378942813       -0.3995687221
 H        -8.4882225606       -2.8700170745       -0.2589972975
 H        -5.9953914018       -0.8167537913        1.2664656481
 H        -7.4954706301        0.1609189781        1.5968172420
 H        -6.8985493591       -0.6091264769        2.9629777283
 H        -4.4503937532       -4.1922681763        4.1272884620
 H        -4.5902199320       -5.2089166938        2.7687385453
 H        -3.4133492623       -4.9451057008       -0.2368427110
 H        -4.1722928475       -3.4457869507        0.2770626574
 H        -0.4661794255       -2.7147490587        2.5938354809
 H        -1.5344540737       -2.6422797217        3.9749172027
 H        -2.0203395705       -1.6756091952        2.5148961519
 H        -0.9775705872       -5.4282267459        2.2661276767
 H        -2.1573795292       -5.2737262398        3.5860511296
 H        -2.5451589060       -5.6937702896        1.9238888005
 H        -3.9830395156       -3.5177034911       -2.3695629267
 H        -2.5800081783       -4.4721888762       -2.2382963730
 H        -1.1846302872        0.0746273867       -5.8849417857
 H        -2.2233685828       -1.2327212798       -6.3065941984
 H         0.2699603187       -1.9346757133       -4.5011723929
 H         0.4018772106       -3.1563359864       -3.3010770340
 H         0.4053125748       -1.4411781068       -2.7673957547
 H        -1.8424183422       -4.3277499898       -4.1716645993
 H        -3.1226298340       -3.4053495045       -4.5048908766
 H        -1.7281531692       -3.1928427766       -5.5645014468
 H        -3.1275876838        1.4206617583       -5.0970882451
 H        -3.5335994714        0.6946973060       -6.7900698111
 H        -7.3906701506        1.7747755152       -2.5422410551
 H        -6.3228932255        0.6272696441       -2.0884363816
 H        -4.9633991572        1.8291603349       -6.6614268158
 H        -6.7137507489        2.1835285640       -6.3916015834
 H        -6.1847732082        0.7680222975       -7.1197610213
 H        -7.8937506355        0.5285851686       -4.8343862219
 H        -7.1586430932       -0.6781392988       -5.9245375735
 H        -7.0361619947       -0.8814354356       -4.1252843670
 H        -6.4908047469        2.6252442566       -0.4924842849
 H        -5.7653341984        3.5321684774       -1.7962150966
 H        -1.6751123119        4.4698979271       -0.2878108496
 H        -1.7021676490        4.3005039098        1.4157608648
 H        -4.4170318886        4.9481362770        0.1669253951
 H        -3.7771110420        4.4955737270        1.8256021057
 H        -5.4320471368        4.2275138275        1.3605694820
 H        -3.9920606316        2.1911800339        2.5574767096
 H        -5.4145535857        1.6236435049        1.5419387812
 H        -3.8741226125        0.7075998327        1.4750874412
 H         0.6734271756        4.4125248653        0.9660253196
 H         0.3600967769        2.7788493561        1.5343799981
 H         3.9340644903        1.0752166660        0.8118652985
 H         3.4513057180       -0.5923779007        0.8769377777
 H         2.5747572061        3.8010069643       -2.3673974283
 H         2.1617795802        2.1873467311       -2.8170220172
 H         3.8637797540        2.4548851118       -2.2044651215
 H         4.2165330350        3.1423064141        0.1990532749
 H         2.9018324783        4.2150374482        0.3364773262
 H         2.8943883784        2.7018163111        1.3627143665
 H         5.2577065196        1.0467029269       -0.9162758295
 H         4.5229446881       -0.1228350292       -1.8427013567
 H         9.0391701979       -0.6170086645        2.0013119359
 H         9.8899850387        0.4396738123        0.8503147990
 H         7.4693449798       -2.6791073319        0.6161014703
 H         8.9703422198       -2.0502028278       -0.0301962081
 H         7.9659978278       -2.5940661197       -1.2064761524
 H         8.5437517441       -0.4442990844       -2.0811300792
 H         6.8351767690       -0.2603213145       -2.5462769411
 H         7.7602526773        1.0151246608       -1.7235153715
 H         9.2804890672        2.4555930218        1.7753145630
 H         8.0769929604        1.8089576294        2.9684451129
 H        11.7884995047        5.5458789582        5.1479140992
 H        12.6166945587        3.9779529070        5.5920173783
 H        12.9999726516        4.9162748953        4.0599115413
 H         8.9796092537        3.7488594456        6.0603938785
 H         8.1888896485        2.4604315309        5.0686568237
 H         8.5352929156        4.1801185092        4.4058300067
 H        10.8928322938        2.6909979742        6.7341983076
 H        10.3194288156        1.0565727328        6.0749123507
 H        11.9066369179        1.7114335260        5.6123535932
 Na       -1.1308516493        0.2906170173       -1.0668514889
