155

 C       -10.3733327560       -3.4452382107        1.9848502935
 C        -9.2181081083       -2.4561124118        2.3250862917
 C        -8.2654064134       -1.8468462352        1.1187610985
 C        -6.8263488493       -2.6092543467        1.3742938593
 C        -5.9445158054       -2.2061297341        2.5509489128
 C        -8.8262487044       -2.2688626505       -0.2436981026
 C        -8.2355771602       -0.3200035451        1.3593353360
 O        -8.7560263459       -2.4070254000        3.4551905611
 O        -6.4979990911       -3.5373988329        0.6290210274
 C        -4.9727388285       -3.3836182521        2.8389672331
 C        -3.5166753110       -3.0056929162        2.6913377090
 C        -2.4496465561       -4.0108765335        2.1786222895
 C        -2.4085478059       -4.2334669065        0.6468771826
 C        -3.3411040046       -3.4556833417       -0.2398824351
 O        -3.2353188858       -1.8123309431        2.8170118129
 O        -1.5570725939       -4.9979892193        0.1333238108
 C        -0.9561098290       -3.3593991200        2.3593804947
 C        -2.5507741742       -5.4292911756        2.7950669600
 C        -3.1253381368       -3.4901014468       -1.7311679836
 C        -2.2361954533       -2.3274910000       -2.2335302054
 C        -1.8633381615       -2.3099831871       -3.7614429844
 C        -2.2605446381       -0.9198186578       -4.3055366191
 C        -3.1370451461       -0.7107049375       -5.5700057512
 C        -0.3245825450       -2.6652485205       -3.7094591921
 C        -2.5272343933       -3.4451125162       -4.5591556099
 O        -1.6808622303       -1.5484431301       -1.4908634391
 O        -1.9341830670       -0.0178329290       -3.6551541454
 C        -3.9958036926        0.5719689087       -5.4158549428
 C        -5.2117070192        0.2839630942       -4.5916263042
 C        -6.2495878178        1.4065188609       -4.3349363246
 C        -6.0448315435        2.1466208017       -2.9124741253
 C        -5.7383346124        1.2308322143       -1.7570840974
 O        -5.4050321379       -0.7751900199       -4.0381529777
 O        -6.1394805357        3.3297206039       -2.7402656561
 C        -6.3353497256        2.3982352338       -5.5389624869
 C        -7.7721104376        0.7695454198       -4.1236567038
 C        -5.3820021570        2.0976866085       -0.4841654486
 C        -3.7971390515        2.0973134386       -0.3195918265
 C        -3.1235466508        2.4449705085        1.0202785141
 C        -1.5666659903        2.5289129033        0.7507509225
 C        -0.9659289536        3.7989081054        0.2281162442
 C        -3.7447776957        3.7761714124        1.6330229954
 C        -3.5166924469        1.2173855143        1.9566677896
 O        -3.1622922488        1.8540068924       -1.3382312145
 O        -0.8920069622        1.5307408340        0.7056845111
 C         0.5904180756        3.7105793788        0.3021984527
 C         1.1284365651        2.7236283427       -0.7914563940
 C         2.4888700622        2.0253318027       -0.6114419553
 C         2.3176122080        0.4523558195       -0.6853193787
 C         3.4404028812       -0.4025348734       -0.1018653658
 O         0.5318956730        2.4771467657       -1.8418402812
 O         1.3977334864       -0.1472101167       -1.1724547933
 C         3.2643261103        2.4715037509       -1.9142227068
 C         3.4401027740        2.4100606710        0.6548957865
 C         4.8377188629       -0.3342985418       -0.8253119186
 C         5.8779128892       -1.1679715450       -0.1672076974
 C         7.4796637894       -0.7087250487       -0.3136268028
 C         7.6433239668        0.7572146536        0.4262059418
 C         8.7132827195        0.6481813202        1.5704462349
 C         8.4546343668       -1.8929888289        0.1499624248
 C         7.6929208787       -0.4831903648       -1.8832973267
 O         5.6701654030       -2.0489406091        0.6304401599
 O         7.0349571309        1.7067342812        0.0425611050
 C         8.8248982339        1.9344005901        2.3755369401
 C         9.9166809599        1.7785101013        3.4928533035
 C        10.5176357113        3.1532171711        4.2431610936
 C        11.4706993007        3.7908525115        3.1162165734
 C        12.9824694049        3.3983457521        2.9060900084
 O        10.2153146921        0.7233806912        3.9718390480
 O        10.9486400461        4.5849480598        2.3895299662
 C         9.3739959191        4.1067377197        4.4653839329
 C        11.3360090640        2.8024775868        5.5275561141
 H       -10.0218835413       -4.3608541131        1.5270054203
 H       -11.0115927390       -3.6499446137        2.8501660426
 H       -11.0761197817       -3.0522232612        1.2429195215
 H        -5.4412223816       -1.3126483104        2.1667742700
 H        -6.5682297424       -1.7498226364        3.3456062914
 H        -8.3386773458       -1.7355771171       -1.0970377607
 H        -9.9327774734       -2.1221609985       -0.3440943515
 H        -8.6094325164       -3.3304489222       -0.4091009878
 H        -7.3004141421        0.2306712951        1.3750572722
 H        -8.8007743582        0.1695955215        0.5281742803
 H        -8.6959682592       -0.2012305539        2.3451836592
 H        -5.0116596131       -3.4775952432        3.9469592063
 H        -5.3061691872       -4.3352844779        2.4854436600
 H        -4.3805830012       -3.9082229243       -0.0122359747
 H        -3.3217980749       -2.5001916439        0.1701727173
 H        -0.2829688933       -4.0814237589        2.1460916140
 H        -1.0739033212       -3.0089699350        3.3859300094
 H        -0.7707396263       -2.5738170522        1.5639592516
 H        -2.0043987454       -6.1412917694        2.1963440241
 H        -2.1512246196       -5.4732897470        3.8158207439
 H        -3.6202178871       -5.8163982328        2.9106990660
 H        -4.0619633950       -3.5018946015       -2.2177738967
 H        -2.5742233447       -4.3349758087       -2.0708670568
 H        -2.5316219577       -0.6284015054       -6.4217115847
 H        -3.8047208096       -1.5530422129       -5.7332710505
 H         0.1262673248       -2.6891549491       -4.6351127364
 H        -0.3914246942       -3.6349201548       -3.3730141931
 H         0.1846475812       -1.8719620441       -3.0822793733
 H        -2.1205872534       -4.4301942568       -4.2216439965
 H        -3.5526726308       -3.5134645589       -4.6018786326
 H        -2.3244320818       -3.3084015679       -5.5856831241
 H        -3.3568534516        1.4841970988       -5.0530730530
 H        -4.4088740995        0.8922009459       -6.3955097702
 H        -6.6756892857        0.7382359101       -1.6031412552
 H        -4.9994695407        0.3845963128       -1.8551649983
 H        -5.6623011040        3.2810680488       -5.5077267282
 H        -7.3488461919        2.8915848106       -5.5431994982
 H        -6.1955945750        1.9049342845       -6.5210388259
 H        -8.3379852733        1.6567532670       -3.8757384846
 H        -8.2186556456        0.2946511265       -5.0267508550
 H        -7.7857053184        0.0592796776       -3.2652826919
 H        -5.9383738904        1.7868932313        0.3932665846
 H        -5.7306138159        3.1050033138       -0.7377048840
 H        -1.4711854375        3.7664552336       -0.7098443760
 H        -1.2999359778        4.7523568411        0.7186267704
 H        -3.2855495641        4.6584590051        1.1692488419
 H        -3.5262775985        3.9521474996        2.6844773906
 H        -4.8718364171        3.6810119652        1.4080562363
 H        -2.6864671055        1.1284373494        2.6665475019
 H        -4.4903461158        1.5002002867        2.3300362648
 H        -3.5571262746        0.2690867661        1.4190798713
 H         1.0770744094        4.7201785097        0.1955797096
 H         0.8589325900        3.4501497949        1.2797738953
 H         3.7487132843       -0.1218902795        0.8846290535
 H         3.1321120438       -1.5031072893        0.0275612099
 H         2.9267433408        3.4374010385       -2.3416308579
 H         3.2538655089        1.7160437631       -2.7009105887
 H         4.3468630981        2.5439737456       -1.6431516054
 H         4.4520795566        2.0222293487        0.3052784350
 H         3.3319718847        3.4311473568        0.8630261939
 H         3.0356166958        1.9024849623        1.5496119244
 H         5.0868614759        0.6727679372       -0.7129931802
 H         4.7668152210       -0.5870838670       -1.9359791809
 H         8.4832941514       -0.1543578880        2.3299759218
 H         9.6351195489        0.3910728430        1.0423229927
 H         8.3727924474       -2.2999762102        1.1788186949
 H         9.4802779651       -1.5767602666       -0.0454481248
 H         8.1076599273       -2.7686246533       -0.4596530927
 H         8.6785444550       -0.4243916493       -2.3007080340
 H         7.2162113413       -1.3187434584       -2.3540680558
 H         7.0131295868        0.3587398209       -2.2393328133
 H         9.0613398250        2.8905963555        1.8461282546
 H         7.8873100763        2.0275502123        2.9670519123
 H        13.2857370813        2.5541303400        3.5253654633
 H        13.0309906895        3.1139731972        1.8432958982
 H        13.5772548099        4.3290418693        3.0426496344
 H         9.7216676027        5.0291542431        4.9772390118
 H         8.6899931735        3.6175776350        5.2085972970
 H         8.8103386749        4.3025833497        3.4831908893
 H        12.1382091048        3.5192302643        5.5693121107
 H        10.7376448035        2.9180307853        6.4435236897
 H        11.6439007680        1.7546012584        5.4668875299
 Na       -0.9724227653        0.7192090566       -1.6311625587
