155

 C       -10.4775056639       -3.3370583768        2.0589740983
 C        -9.1640008472       -2.6151203647        2.3378109708
 C        -8.3119213905       -1.9354366819        1.1133465846
 C        -6.9478271739       -2.5403989280        1.2301195180
 C        -5.9822153181       -2.1924224287        2.4508504869
 C        -8.8170647745       -2.2222525545       -0.3709465318
 C        -8.5023911805       -0.4105808346        1.4717240460
 O        -8.7137988598       -2.4917471398        3.4393157340
 O        -6.6097234746       -3.4363214229        0.4908999271
 C        -4.8760335950       -3.2374575291        2.7705435369
 C        -3.3901963417       -2.8519946267        2.5158983708
 C        -2.3409252829       -4.0348370741        2.2249338696
 C        -2.5692106635       -4.3366523768        0.5634314053
 C        -3.4964899785       -3.4176577836       -0.2184260640
 O        -3.0526522649       -1.7220878398        2.7363550633
 O        -2.0555368393       -5.2366679578        0.0403953462
 C        -0.9229524952       -3.5360667465        2.5781028007
 C        -2.6911894985       -5.3514871682        2.9612108032
 C        -3.4666202754       -3.4521622810       -1.7399787108
 C        -2.2983015167       -2.4812445219       -2.2407379816
 C        -1.8543803364       -2.3463415754       -3.7654732931
 C        -2.3340176218       -0.9885966244       -4.2532450181
 C        -3.3757904226       -0.8019776690       -5.3034276592
 C        -0.3172708721       -2.2816856184       -4.0233759697
 C        -2.4441404744       -3.4310193434       -4.5160567694
 O        -1.7369593524       -1.7890360094       -1.4229571068
 O        -1.7278766657        0.0638370680       -3.8771345606
 C        -4.1517607393        0.4911553057       -5.2086780841
 C        -5.4101925436        0.2664807521       -4.3588875674
 C        -6.3671972810        1.4851256366       -4.1150225168
 C        -6.0486142648        2.1541479548       -2.7323679973
 C        -5.9537397126        1.2243456438       -1.5257533655
 O        -5.6351117390       -0.7692194993       -3.7313486529
 O        -6.0339850650        3.3718479589       -2.5622509813
 C        -6.2460086253        2.5652779276       -5.1805154144
 C        -7.8609249121        0.8713647173       -4.0751662104
 C        -5.1894725249        1.7453578678       -0.3295017810
 C        -3.7451018618        2.0374139863       -0.4720329495
 C        -2.9835797055        2.3745178121        0.9035234357
 C        -1.4585215693        2.5036847335        0.7390131357
 C        -0.7478609033        3.8580558835        0.3875703735
 C        -3.5238522965        3.7232782620        1.5746376867
 C        -3.2122317957        1.2046910842        1.8838195695
 O        -3.1255957367        2.0916888596       -1.5342983235
 O        -0.7702115706        1.5049842239        1.0351915755
 C         0.7379285202        3.7593997586        0.3309885942
 C         1.1733038992        2.8354221552       -0.8252126954
 C         2.6318555707        2.1294679721       -0.7634905084
 C         2.4339175052        0.5462716895       -0.8579348878
 C         3.4208475965       -0.5285066117       -0.1843740007
 O         0.4537305016        2.6571403971       -1.7808673402
 O         1.4508650609        0.0928646815       -1.4334451440
 C         3.4766059313        2.5829495809       -1.9688453703
 C         3.2990725964        2.5464907595        0.5405275438
 C         4.8841933890       -0.6864395312       -0.8072964346
 C         6.1028246393       -1.2889637355        0.0237772279
 C         7.6087742108       -0.8124760716       -0.2677534259
 C         7.7256453830        0.5714743754        0.4786635841
 C         8.8027729365        0.6791468033        1.5216773683
 C         8.6415369520       -1.9331242403        0.0424718691
 C         7.6625979497       -0.3816257990       -1.8492216723
 O         5.8911362969       -2.0806424092        0.9716887633
 O         6.8552686441        1.4499442418        0.2089937500
 C         8.7998713636        1.9601245989        2.2566759966
 C         9.7813086532        1.9558626088        3.5142354577
 C        10.4911697745        3.2538651176        4.0534029698
 C        11.3628321561        3.7644099993        2.8363190916
 C        12.7833443940        2.9439931840        2.6928569072
 O        10.1197730339        0.8567423383        3.9349635228
 O        11.0432551273        4.7032348319        2.1152197113
 C         9.4488182750        4.2897068521        4.4646902158
 C        11.4611988640        2.8409350714        5.2235422142
 H       -10.1537485008       -4.3899741997        1.8897149717
 H       -11.1449024003       -3.3675289445        2.9153844618
 H       -11.1347129933       -3.0772555548        1.2411447655
 H        -5.7541072840       -1.1246614304        2.4476869188
 H        -6.6889752556       -2.2363113858        3.2380556124
 H        -8.4026591367       -1.5181331198       -1.0765690637
 H        -9.8614269228       -1.9650624070       -0.3860965977
 H        -8.7800757265       -3.2487091298       -0.7058132359
 H        -8.2021739087        0.2159595641        0.5568541589
 H        -9.5785257933       -0.1911209835        1.5919054191
 H        -7.8683026790       -0.1296340717        2.3805939614
 H        -5.0957185402       -3.5861397284        3.7914171016
 H        -5.1539676139       -4.0883409141        2.0408247988
 H        -4.4561546459       -3.7328558198        0.0135534483
 H        -3.4051595188       -2.3665550430        0.2310122415
 H        -0.3656147682       -3.4648016099        1.5738173489
 H        -0.6346103564       -4.1600137572        3.4151562458
 H        -1.0541469663       -2.5322352311        2.8629054665
 H        -2.7298718538       -6.2561374771        2.3214182723
 H        -1.9531778242       -5.5027983029        3.7290516302
 H        -3.5803839451       -5.3356415292        3.5103494366
 H        -4.4946046992       -3.0490910185       -2.0220490774
 H        -3.3590630223       -4.4291733521       -2.2869098650
 H        -2.7734365843       -0.9337124772       -6.2762914797
 H        -4.1273931309       -1.6000910590       -5.2569815068
 H        -0.1400067707       -2.3569968027       -5.1714096622
 H         0.1715184075       -3.1912243878       -3.5834282214
 H        -0.0314975108       -1.3217171159       -3.7856879824
 H        -2.1986317179       -4.3495373475       -4.0758948732
 H        -3.5771826156       -3.3967420789       -4.3386949343
 H        -2.3905441401       -3.4422282969       -5.6212547946
 H        -3.6168394647        1.2336340067       -4.6918942938
 H        -4.3898638586        1.0135474302       -6.1621966188
 H        -6.9998538403        0.8166915983       -1.2306359419
 H        -5.4021857896        0.3367714807       -1.8340225643
 H        -5.2287608203        2.9407691651       -5.1847166003
 H        -6.7153360071        3.3984864027       -4.7094105168
 H        -6.6009199353        2.4776852256       -6.1882770401
 H        -8.4516999771        1.4869784358       -3.3435427470
 H        -8.2646168196        0.9215260329       -5.0650474083
 H        -7.8609966771       -0.1577885869       -3.7507606592
 H        -5.3175770487        1.0943433979        0.5624789062
 H        -5.6232166464        2.7378630887       -0.0320732068
 H        -0.9973748041        4.3096114571       -0.6364313156
 H        -1.0473646041        4.5559182327        1.1212728681
 H        -3.7934775402        4.5035954159        0.8787642016
 H        -2.7136870714        4.2027188888        2.1485184211
 H        -4.3376172385        3.4622444569        2.1645936421
 H        -2.3562126603        1.0441746711        2.5471096432
 H        -4.2784512052        1.2310168477        2.1570164487
 H        -3.0362711171        0.3575459359        1.2052733003
 H         1.0797740438        4.7582166084        0.1687055609
 H         1.2935457764        3.4432569171        1.2757311240
 H         3.5722360799       -0.2961623168        0.8850660483
 H         2.9242598677       -1.4372677390       -0.1944011373
 H         3.1594634896        3.5794182256       -2.2433685823
 H         3.2984858640        1.9042954768       -2.8589825375
 H         4.5507144974        2.5556280197       -1.8183750885
 H         4.2660768908        2.1384928505        0.5289040009
 H         3.2340024767        3.6845844918        0.5967120935
 H         2.6309126348        2.2062851055        1.3291890413
 H         5.0990329219        0.4177156548       -0.8082345429
 H         4.7493286389       -0.9953839424       -1.7814503389
 H         8.6670389942       -0.1460395861        2.2137514585
 H         9.7393875500        0.5373634568        0.9082464621
 H         8.1539399612       -2.4261435209        0.8698243205
 H         9.6549615967       -1.6087517541        0.4054461906
 H         8.5437723171       -2.6954532525       -0.7028294430
 H         8.3518803349        0.4995465032       -1.9534192564
 H         8.0707417921       -1.2194352053       -2.4717099585
 H         6.7443552423       -0.1643818696       -2.3300182774
 H         9.1550087691        2.7779402976        1.6266032443
 H         7.7841255391        2.2050430112        2.5616080674
 H        12.5939600602        1.9407885206        3.0996290856
 H        13.1820673731        2.9478054511        1.6821432180
 H        13.4445839680        3.5033377520        3.3248535011
 H         9.7767335314        5.1928785137        3.9300066262
 H         9.3433404676        4.5054396363        5.5257832258
 H         8.4811423319        4.0693771313        4.0547727711
 H        12.4319265975        3.3503024424        5.0105374887
 H        11.0932510801        3.2514230605        6.1433406437
 H        11.4935621985        1.7490159895        5.4017256770
 Na       -0.9645874148        0.5571482573       -1.7159152574
