155

 C       -10.4671198430       -3.9686793160        1.9371025726
 C        -9.7407725782       -2.7812212397        2.5168286675
 C        -8.8350919357       -1.8823440128        1.6082095390
 C        -7.3257859818       -2.3656154956        1.5718542181
 C        -6.5928991938       -2.5825742609        2.9594939838
 C        -9.2186729671       -1.8017245934        0.0737005702
 C        -8.8293840464       -0.4428294917        2.2017281049
 O        -9.8079242682       -2.5491928755        3.7209338658
 O        -6.7003809515       -2.4784730717        0.5391668126
 C        -5.4891423810       -3.7132945510        2.9729520909
 C        -4.1529060748       -3.2127513838        2.4466779558
 C        -3.0910826734       -4.2409671943        1.8787361820
 C        -3.4850304588       -4.2765351452        0.3130823205
 C        -3.3461177825       -3.0076387264       -0.5987171788
 O        -3.8097666845       -2.0503616225        2.5879147478
 O        -3.9279680116       -5.3039108571       -0.1263076395
 C        -1.6485838082       -3.7316360861        2.1454972713
 C        -3.2064067089       -5.7284578877        2.4255318485
 C        -2.5222051690       -3.4126896301       -1.7705956638
 C        -1.7457404178       -2.2886383822       -2.3953843702
 C        -1.7249056046       -1.9494984125       -3.9656938530
 C        -2.7008176486       -0.6648130665       -4.0478305921
 C        -4.0001622123       -0.7185745958       -4.8500490397
 C        -0.4106809192       -1.5118370171       -4.6057412994
 C        -2.2650795984       -3.1323278299       -4.8616301717
 O        -1.1037591555       -1.5725537123       -1.7022964983
 O        -2.5353727895        0.3099395997       -3.2439976694
 C        -4.6683615874        0.6242063793       -4.7446727957
 C        -5.7192526648        0.5463368945       -3.6266711563
 C        -6.2013495647        1.8765347614       -3.1016251362
 C        -5.2064758877        2.2664235708       -1.9437258359
 C        -5.4075323616        1.3229045762       -0.6358105716
 O        -6.1757311960       -0.5086539501       -3.1885317391
 O        -4.3470922887        3.1163348611       -2.0882066381
 C        -6.0829231855        3.0058736367       -4.1993838258
 C        -7.6978420807        1.6332652175       -2.5902914330
 C        -4.6592421175        1.7352931837        0.6609787945
 C        -3.0536290942        1.4972927813        0.4654206699
 C        -2.1211089608        2.1782061694        1.4788092225
 C        -0.7599420533        2.3847941771        0.8065450085
 C        -0.3009520390        3.7911030460        0.2937214946
 C        -2.6571292556        3.4666355484        2.0613525310
 C        -2.0485731392        1.1273606740        2.5987384222
 O        -2.6315818431        0.5874980139       -0.2164462054
 O        -0.0314536267        1.3871548310        0.6900955719
 C         1.1898470042        3.6500050477       -0.0819375958
 C         1.3422079188        2.6979995528       -1.3509336265
 C         2.7208502716        2.1181171709       -1.6482324530
 C         2.6094259221        0.4968438456       -1.2684441979
 C         3.6294157395       -0.1059826060       -0.3565634698
 O         0.3773635028        2.2911926786       -1.9934740286
 O         1.6041595048       -0.1733202966       -1.5538710987
 C         3.0211688397        2.2128101256       -3.2553361362
 C         3.8511113640        2.8314122243       -0.8858493585
 C         4.8637976465       -0.4395949451       -1.1278107755
 C         5.7276156685       -1.3949571002       -0.3015174133
 C         7.3432554783       -0.9563967220        0.0576320640
 C         7.3979447508        0.4043741479        0.6780583984
 C         8.3886413240        0.6759838830        1.9424203764
 C         7.8238479797       -2.1235294231        1.0316233295
 C         8.2087858293       -0.9364484899       -1.2552640664
 O         5.3917965174       -2.4078572497        0.2068431847
 O         6.7835549190        1.2898742192        0.1431737510
 C         8.9303229817        2.1205476508        1.8724163975
 C         9.9577177619        2.3482261321        3.0555962543
 C        10.8655557125        3.5094634069        2.9652701838
 C        11.6652384612        3.5683479064        1.6366865500
 C        12.4346486771        2.2363198800        1.3544336141
 O         9.8482796651        1.6390188486        4.0375772863
 O        11.8783154733        4.5305038786        0.9269997305
 C         9.8978570544        4.7048354837        2.8786564812
 C        11.8184112793        3.5071097568        4.1446305820
 H        -9.7501926553       -4.7855641834        2.0796489348
 H       -11.3373169818       -4.3667967667        2.4701722169
 H       -10.6063034094       -4.0271244102        0.8547679871
 H        -6.0680793657       -1.6761096814        3.4514344359
 H        -7.4027525988       -2.8646495790        3.6201259427
 H        -8.7084809445       -0.9312556956       -0.3407346227
 H       -10.3255625286       -1.7708199131       -0.0846261848
 H        -8.7223403418       -2.6270934777       -0.3854006413
 H        -8.2641620632        0.1486741485        1.5864922004
 H        -9.7732702382        0.0237553240        2.3683209090
 H        -8.4594676224       -0.4417599328        3.1921242698
 H        -5.3662218114       -4.0943126701        3.9747483343
 H        -5.9042598593       -4.4769557573        2.2483272251
 H        -4.4238304153       -2.9323157656       -0.9579819927
 H        -3.0568892385       -2.0810611179       -0.1167327659
 H        -0.8657221212       -4.3522928042        1.7179830834
 H        -1.5746916530       -3.6166079861        3.2315000210
 H        -1.4854364781       -2.6893177561        1.7039678585
 H        -2.4042055845       -6.2487445475        1.9730938330
 H        -3.1773814458       -5.9534472743        3.4647619642
 H        -4.1619231454       -6.1086532079        1.9743635738
 H        -3.1638016848       -3.7538848822       -2.5798270682
 H        -1.8869566573       -4.2267899506       -1.5097960802
 H        -3.8770009481       -0.9529574649       -5.9370010663
 H        -4.6796470508       -1.4838240544       -4.4492285711
 H        -0.6383107990       -1.0864898424       -5.5484099890
 H         0.2098150016       -2.3862856154       -4.7472916111
 H         0.1045091976       -0.8624414012       -3.8870398632
 H        -1.4272979408       -3.9012098607       -4.9044148423
 H        -3.1411376647       -3.6393570927       -4.5459051570
 H        -2.5513932864       -2.7149300924       -5.8151430367
 H        -3.9390345391        1.4578963364       -4.7955177648
 H        -5.2586134756        0.7024692213       -5.7476895095
 H        -6.4995096318        1.3669250009       -0.4642722440
 H        -5.1402573747        0.3747800448       -0.9630515055
 H        -5.2434212017        3.6475966629       -4.1695710064
 H        -6.8725238914        3.6782683818       -3.9137866690
 H        -6.2583794613        2.6663347123       -5.1786946010
 H        -8.0699629645        2.5841096169       -2.2723930785
 H        -8.2530980097        1.3625061423       -3.4590783786
 H        -7.8128287320        0.8925888302       -1.8048759882
 H        -4.7794860307        1.0701169957        1.4704104593
 H        -4.8329556078        2.7660581569        0.9586781631
 H        -0.8697980820        3.9636238235       -0.6364204088
 H        -0.4115267890        4.6531778295        0.9100904724
 H        -2.7467572460        4.2605356524        1.3404494969
 H        -1.9706636226        3.8487298217        2.7393572435
 H        -3.5758451084        3.1947099232        2.5527960218
 H        -1.4721127710        1.6719296266        3.3245422189
 H        -2.9734945819        1.0042833521        3.0906864202
 H        -1.6838702913        0.1674987371        2.2671415656
 H         1.7357515206        4.5526676413       -0.3669756975
 H         1.6261887331        3.2093300171        0.8494358705
 H         3.8172742214        0.4894997081        0.5253718333
 H         3.2310842517       -1.1687716033       -0.0114033306
 H         2.8526402325        1.2659395101       -3.7181913670
 H         3.9900967712        2.4891333210       -3.4764833656
 H         2.3300866740        2.8726610846       -3.7503894401
 H         4.7689518933        2.2426726257       -1.1013488304
 H         3.9776722709        3.8362749394       -1.0481899757
 H         3.6830913454        2.8204865711        0.1657839924
 H         5.5014428456        0.4154431222       -1.3943328942
 H         4.5944307785       -0.8933389381       -2.1104321941
 H         7.9675481466        0.4871046258        2.8898287071
 H         9.2422564544       -0.0343074323        1.8809885788
 H         7.1809514903       -2.2631854508        1.8941463312
 H         8.8259844131       -1.9149587272        1.2532523412
 H         7.6668243796       -3.0197622988        0.4335878293
 H         9.2435638242       -1.1227181489       -1.0695313738
 H         7.7552300242       -1.6411182228       -1.9248568411
 H         8.0327987494        0.1004821273       -1.7196350130
 H         9.6251686201        2.2029430392        1.0146179971
 H         8.2085374023        2.9200103331        1.8217435685
 H        13.2129482974        2.4801732363        0.6540578939
 H        12.7985226932        1.8654161343        2.2896665154
 H        11.7573915884        1.5101877722        0.9277613348
 H         9.7171777022        4.9348975324        1.8704553833
 H        10.2140648679        5.6282576737        3.2010954430
 H         8.9336507462        4.5081279119        3.2962045852
 H        12.3336322779        4.4458835336        4.3196841717
 H        11.4042736089        3.2083700464        5.0940738971
 H        12.5850678622        2.7830064922        3.8535170467
 Na       -0.7340840492        0.5442377407       -1.5151029350
