155

 C         4.4384041308       -1.0203006800       10.2750494585
 C         5.1865273381        0.2837819214        9.9371156936
 C         6.6448814333        0.2972198478        9.1009724474
 C         6.1681497163       -0.3107990134        7.7143172917
 C         4.8559871264        0.2343340595        7.1530272122
 C         6.9847476222        1.8245339176        8.9598315624
 C         7.6663890844       -0.4606758943        9.9052524720
 O         4.8177705682        1.3665495646       10.3737950522
 O         6.7455407839       -1.3074875247        7.2967861485
 C         4.0957821550       -0.7717259276        6.3561925859
 C         3.1053915958       -0.1711060958        5.3289305825
 C         2.6036753495       -1.2184028513        4.2398015420
 C         1.4884847935       -2.2008261634        4.8797223175
 C         0.9161579865       -3.3142222129        4.0815340789
 O         2.6901712299        0.9872296903        5.3730557581
 O         1.0676763594       -1.9769122785        6.0042419628
 C         1.8641350086       -0.5279028392        3.1055309377
 C         3.6828509271       -2.0229006304        3.5136100672
 C        -0.6012982795       -3.3121809369        4.1126378254
 C        -1.2405614731       -2.5232129060        2.9763060182
 C        -2.7667055868       -2.6521116329        2.7843113193
 C        -3.4220408070       -1.2138427962        2.9523872454
 C        -3.9754143757       -0.8458188638        4.2501882243
 C        -3.2358407798       -3.1250219180        1.3316003177
 C        -3.4371358829       -3.6754804771        3.7997575070
 O        -0.5240181016       -2.0173254734        2.1153270271
 O        -3.3512622435       -0.4987539067        1.9783287054
 C        -4.0690391973        0.7184760534        4.3947720281
 C        -2.6799259665        1.1790602430        4.7847981966
 C        -2.3193568815        2.7714953260        4.9761190446
 C        -1.8729819822        3.2433823280        3.4247309151
 C        -0.4685684480        3.7252005987        3.0808604212
 O        -1.7403254479        0.4299680234        4.8903050447
 O        -2.7270151416        3.2524846964        2.5785711761
 C        -3.5784594671        3.7001724747        5.2504202434
 C        -1.3494270560        3.1905237879        6.1174695607
 C        -0.1665547856        3.9490435821        1.6570449851
 C        -0.3864303599        2.7099135614        0.8121363460
 C         0.6141555760        2.7102353146       -0.5717569151
 C         0.5333778634        1.3417216566       -1.2208787293
 C         0.6008011016        1.2113804412       -2.7388280128
 C        -0.1158942858        3.8366545729       -1.4441986748
 C         1.9902473052        3.1760783598       -0.2419493425
 O        -1.1701259425        1.7954185600        1.1160995031
 O         0.6163791428        0.2990236020       -0.5598960230
 C        -0.1867562596       -0.0668047155       -3.2645015722
 C        -1.7013430336       -0.0724607399       -2.9102338542
 C        -2.8595826888        0.1006311757       -3.9955113188
 C        -2.6629065251       -1.3494087633       -4.6924991384
 C        -2.8813063643       -1.9315008339       -6.1334746385
 O        -2.1024843788       -0.1129243229       -1.7974542284
 O        -2.3515924965       -2.2290538728       -3.9174688178
 C        -4.3001995160        0.2817850810       -3.5356889663
 C        -2.7341111384        1.2565543662       -4.8779489207
 C        -4.3409101183       -2.0861707158       -6.6072278606
 C        -4.3144342201       -2.6008285469       -8.1331312064
 C        -4.8400000028       -1.5454035812       -9.3023351287
 C        -3.7880354940       -0.2769202957       -9.2303855621
 C        -2.4916623559       -0.1352770229      -10.0802308575
 C        -5.0562461171       -2.3329002764      -10.6648125518
 C        -6.2780109066       -1.0433276037       -8.9654409662
 O        -3.9796113498       -3.7538220952       -8.3959927940
 O        -3.9859276809        0.4932381033       -8.3137483910
 C        -1.2914187401        0.0848801032       -9.0161798594
 C         0.0432424335        0.3452572263       -9.7055525232
 C         1.5190203848        0.1874686416       -9.0180161252
 C         1.4113166485        1.1734356731       -7.8686416758
 C         1.4281791910        2.6589900172       -8.2800280150
 O         0.0719287813        0.7471259929      -10.9048496905
 O         1.3132255351        0.8044947256       -6.6981813013
 C         1.7723327838       -1.3331888477       -8.4763280719
 C         2.6218476944        0.3669981674      -10.1442746887
 H         4.8992383717       -1.8324373354        9.8252107639
 H         4.3713202519       -1.1659254853       11.3547766224
 H         3.4264049275       -0.8810207633        9.8312149236
 H         4.1293685733        0.8780482255        7.7231486990
 H         5.1658967853        0.9230908295        6.4337480492
 H         7.0817166069        2.3020976009        9.9143991632
 H         6.1832403978        2.3985542933        8.4995894383
 H         7.9041595741        1.9086918776        8.3891493505
 H         7.4050787855       -1.4413127667       10.0295636291
 H         8.6336645404       -0.1696997169        9.4847652036
 H         7.7424877501       -0.0302306443       10.9151515558
 H         4.7953302517       -1.4196955060        5.6429887969
 H         3.6368629969       -1.5900206947        6.9132873528
 H         1.2970727592       -3.1798883833        3.0562847383
 H         1.2885606630       -4.3342331996        4.3742118001
 H         1.0936167316        0.1079917063        3.5786203557
 H         1.4391610793       -1.3131659693        2.4859354793
 H         2.5583616040        0.1818118703        2.6382082183
 H         4.2584090585       -2.6312256442        4.2878446834
 H         3.2566507191       -2.8145484061        2.8090835943
 H         4.4046258732       -1.2354748920        3.0731055008
 H        -0.9639212017       -2.8661173260        5.0851928548
 H        -0.9767656039       -4.4015458302        4.0796968428
 H        -4.9683965987       -1.4271918674        4.3780659333
 H        -3.3689546389       -1.2272633801        5.0203364096
 H        -2.9231736220       -2.4154025939        0.5917195889
 H        -4.2971832023       -3.3592215213        1.2332554301
 H        -2.7868837138       -4.1149881465        1.0102681813
 H        -3.0502527652       -4.6883895995        3.8661593694
 H        -3.2641804817       -3.2369632279        4.7980506385
 H        -4.4933101494       -3.8234116883        3.5547365023
 H        -4.4039815900        1.1956484096        3.4499339318
 H        -4.7418293755        0.9443111944        5.2172881708
 H        -0.2449397881        4.6130177440        3.7111908471
 H         0.1628393047        2.9255517986        3.4340473819
 H        -4.1034003628        3.5899895661        6.1425129544
 H        -4.2239579662        3.4874970328        4.4016175559
 H        -3.4822778250        4.8082928840        5.2620706179
 H        -0.9411877131        4.2280713538        6.0175016005
 H        -1.7094550085        3.0397428268        7.1495740464
 H        -0.4437506509        2.5829436854        6.1193042375
 H         0.8262606543        4.4072224279        1.6317984577
 H        -0.7400056291        4.8394321522        1.3954301085
 H         0.2221279562        2.2024156346       -3.1918786078
 H         1.6343441025        1.0022515196       -2.9343597896
 H        -0.4261600819        4.5696970864       -0.7071656596
 H        -1.0092638766        3.5041243479       -1.9631812939
 H         0.5455045560        4.3260187002       -2.1693528300
 H         1.9153868019        4.1933513522        0.1842187409
 H         2.4364300241        2.4698004019        0.4990987432
 H         2.6637547292        3.2437114448       -1.0605239010
 H        -0.1044841437       -0.0654183287       -4.3076755987
 H         0.3362680153       -0.9129938031       -2.9020581765
 H        -2.2517260460       -1.3079166959       -6.7890426694
 H        -2.3398785344       -2.8897060836       -6.0470551581
 H        -5.0702325152       -0.0387209360       -4.2998208099
 H        -4.4941602753        1.3841428147       -3.4680280171
 H        -4.4740135691       -0.2120672149       -2.6333015869
 H        -2.8185708450        2.1560027713       -4.2544285651
 H        -1.8026133855        1.2432947131       -5.3731509775
 H        -3.5322901395        1.1416688289       -5.6496718787
 H        -4.9446949039       -1.2576740249       -6.5859677120
 H        -4.8026473247       -2.8194928553       -5.8639815436
 H        -2.1387475461       -0.8310505587      -10.8105562134
 H        -2.5887665318        0.7570591276      -10.7080878743
 H        -5.6233373000       -3.2048116232      -10.3631144576
 H        -4.0794163503       -2.7062553261      -10.9960341868
 H        -5.5863886914       -1.6931887256      -11.3479765074
 H        -6.8903643092       -1.8608432058       -8.6369342466
 H        -6.1465136979       -0.3880654367       -8.1592246061
 H        -6.6803617546       -0.6003254413       -9.8879871815
 H        -1.5148954918        0.8365977906       -8.3032958032
 H        -1.1017389205       -0.8330197317       -8.4659848191
 H         2.2128299271        2.8941741235       -9.0030651672
 H         0.5011726580        2.9470243846       -8.7144581489
 H         1.6094606101        3.2834926087       -7.3810929150
 H         1.5129463733       -1.9342930495       -9.3089476919
 H         1.0938418875       -1.4971587625       -7.6937229128
 H         2.8333346635       -1.4293113822       -8.2083327394
 H         2.4171143077       -0.4757432426      -10.7427127320
 H         2.5322168085        1.2848615696      -10.6712236745
 H         3.5786321239        0.3533323721       -9.7300251671
 Na       -1.4161232842       -0.5333144206        0.3396560307
