155

 C       -12.5699637489       -1.5135551166        1.7901422227
 C       -11.3224082699       -2.3497316835        1.9725708540
 C       -10.1834483909       -1.7368972400        2.7908042189
 C        -8.8163870757       -2.2134649150        2.1848901709
 C        -8.0647484966       -3.5198223059        2.6749841223
 C       -10.1870167068       -0.1868912938        2.7525061622
 C       -10.3949505695       -2.2462520578        4.2001770031
 O       -11.0563716553       -3.4248395496        1.4783230615
 O        -8.5106745546       -1.7160776541        1.1025837024
 C        -6.9183788458       -3.8160485844        1.7554892830
 C        -5.5843460267       -4.1483280965        2.5224001051
 C        -4.5075221263       -5.0810573278        1.7735913445
 C        -4.4385433260       -4.6666360281        0.3603708204
 C        -3.7267750088       -3.2821951829        0.0362423888
 O        -5.3782907493       -3.8025201116        3.6970739902
 O        -4.7133252214       -5.4067469117       -0.5640625345
 C        -3.2249317768       -5.0007119230        2.5278275910
 C        -5.1589991654       -6.5435378486        1.8859741917
 C        -3.8612327314       -2.8808310545       -1.4507899137
 C        -2.7384026523       -2.0396361541       -2.0026107594
 C        -2.8081103592       -1.6137988480       -3.6128738221
 C        -2.7453996153       -0.1420763736       -3.7026388443
 C        -4.1764818190        0.6282697238       -3.8420498844
 C        -1.4638452269       -2.1251738262       -4.0541878144
 C        -3.9536880713       -2.4031743410       -4.2711069575
 O        -1.8370890162       -1.5950309187       -1.2967464850
 O        -1.6854541667        0.4441261282       -3.6850174322
 C        -4.2875401730        1.7758076998       -2.9077829278
 C        -4.9841150226        1.2869554274       -1.5442952699
 C        -5.4693747712        2.1785373537       -0.3665776792
 C        -4.2288753555        2.4534904116        0.5567713433
 C        -3.8439391709        1.2842763172        1.4660760203
 O        -5.0729222803        0.0862481944       -1.4266895773
 O        -3.5596139696        3.4448384307        0.5386788219
 C        -5.9980320613        3.5849723738       -1.0058216233
 C        -6.6486449837        1.5309527671        0.3764316553
 C        -2.4490097135        1.5503333666        2.2206923036
 C        -1.3199584255        1.3803642533        1.2295863863
 C         0.0923358197        1.1446055879        1.8284312667
 C         0.9910022762        1.6681518799        0.7613238752
 C         1.1359783229        3.1617513049        0.4444550925
 C         0.2485134570        1.9462043525        3.1685367357
 C         0.1811637208       -0.4239326010        2.2261727937
 O        -1.3945877341        1.2144977387       -0.0003365806
 O         1.5646708733        0.8163021515        0.0787657521
 C         2.2781198544        3.3157270749       -0.5206335026
 C         1.9207989072        2.5646151571       -1.8265329651
 C         3.0575846046        1.9194878473       -2.6674786660
 C         2.9819004507        0.3863959457       -2.3988709243
 C         4.2420271773       -0.4256721863       -2.1123981629
 O         0.7733007222        2.4076015114       -2.0879881709
 O         1.9370520624       -0.2723214187       -2.5147757770
 C         2.5978778534        2.1131919868       -4.1816272913
 C         4.4405301565        2.6675873882       -2.4839998406
 C         4.1049422056       -1.0729379067       -0.7471075600
 C         4.9352695018       -0.1354281118        0.2501608543
 C         6.5258923949       -0.4783429841        0.3375534470
 C         7.3348121912        0.7881955756       -0.1233254282
 C         8.7670958254        0.9303803849        0.2722310782
 C         6.8323963429       -1.0043619107        1.7548906448
 C         7.0452719900       -1.6048967965       -0.6871758817
 O         4.4687166409        0.7602940857        0.9223047328
 O         6.7651864762        1.6044444012       -0.7550986060
 C         9.5051843140        2.0362067739       -0.4896166709
 C        10.5114523848        2.6551938111        0.5055610375
 C        11.4570534881        3.7156752213       -0.0182576112
 C        12.7749302591        2.8802368098       -0.5455197589
 C        13.7319530825        2.3764954355        0.5630878338
 O        10.5330370368        2.1835658632        1.6524486127
 O        13.0020853493        2.6223402219       -1.6977443069
 C        10.8491895281        4.5155568465       -1.1550683064
 C        11.8891247905        4.5503238905        1.1554325890
 H       -12.7907290685       -0.9539124176        2.6990097896
 H       -12.3129525849       -0.8730721491        0.9603314515
 H       -13.4235621631       -2.0630604298        1.4052780883
 H        -7.8004256722       -3.2150747801        3.6493200002
 H        -8.8253087813       -4.3261557070        2.7928562798
 H        -9.5658456016        0.1909790410        3.5679956765
 H       -11.2133964057        0.2122370056        2.9199834260
 H        -9.8473217340        0.1813382470        1.8143435097
 H       -11.2143687863       -1.7068562143        4.5898100049
 H       -10.7463215474       -3.1939662958        4.1077183269
 H        -9.6193036440       -2.2683019985        4.8903646658
 H        -7.1019682982       -4.6158532547        1.0593218135
 H        -6.7430177076       -2.9518640314        1.1486458920
 H        -4.2239701745       -2.6001605961        0.7236670998
 H        -2.6685281147       -3.4699478000        0.4008211546
 H        -2.3697830023       -5.3752156805        2.0108227531
 H        -3.1236986774       -5.6049854383        3.3790549840
 H        -2.9119660235       -4.0294480317        2.8734083123
 H        -4.6279801028       -7.1838710808        1.1882048325
 H        -5.1384220276       -6.9273850826        2.8599192049
 H        -6.1946264998       -6.3839016590        1.4777884913
 H        -4.7803510523       -2.3626704013       -1.5859988536
 H        -3.8443602849       -3.8524074694       -2.0462927387
 H        -4.3156999331        0.9406542395       -4.8430098385
 H        -4.9097533995       -0.1125582405       -3.5068187358
 H        -1.3051133619       -1.9467009475       -5.1048540491
 H        -1.3888862756       -3.2471451692       -3.9916574287
 H        -0.6549329529       -1.7907492048       -3.4783751176
 H        -3.8849679280       -3.5130579387       -4.0963696371
 H        -4.8090872129       -1.9929102526       -3.8267643213
 H        -3.9788643571       -2.1218199313       -5.3045473102
 H        -3.3268460710        2.2476716197       -2.6828242853
 H        -5.0005508213        2.5842907060       -3.3066545586
 H        -4.6327325559        1.1775292335        2.1925602607
 H        -3.7732996089        0.2925469392        0.8883577591
 H        -5.1952099435        4.1391075484       -1.4771564037
 H        -6.3111822722        4.1958276312       -0.1534615204
 H        -6.8165575217        3.3176668008       -1.6549372034
 H        -7.5744935691        1.6377983593       -0.2406615795
 H        -6.5319067213        0.4515894249        0.4813072094
 H        -6.8721014939        2.0191714054        1.3550935132
 H        -2.3891971309        0.9650980748        3.1841720946
 H        -2.3678519910        2.6158607659        2.5859631030
 H         0.2198585811        3.5409085879        0.0306774723
 H         1.2362082905        3.7987821856        1.3955023990
 H        -0.0447889076        2.9879843789        2.9865837230
 H         1.2628682725        2.0277478853        3.3130760790
 H        -0.2106869637        1.4475354979        4.0289558756
 H         1.1339855958       -0.7300323293        2.5657983454
 H        -0.3698002451       -0.6516871045        3.0937128271
 H        -0.1030718113       -0.9887530182        1.4227068419
 H         2.4457119562        4.3412313301       -0.8875234506
 H         3.2054134474        2.9836031109       -0.1311181754
 H         4.2577653882       -1.2536727047       -2.8298334692
 H         5.2633746710        0.1224174975       -2.2868367531
 H         2.8111056229        3.1195299293       -4.4976467916
 H         1.5832990050        1.9089011920       -4.2303468963
 H         3.0547992573        1.3430954560       -4.7899270967
 H         4.9837567406        2.5578071153       -3.4192032961
 H         4.1571563570        3.7385681722       -2.2534823029
 H         5.0514344428        2.5098529151       -1.5349020784
 H         4.5504085751       -2.0544975477       -0.7368427451
 H         3.0790476256       -1.1973297334       -0.4603324897
 H         8.6868915238        1.2904892601        1.3572379614
 H         9.3381500738       -0.0127639020        0.3954079046
 H         6.7990873801       -0.2078481018        2.5395996345
 H         7.8631391054       -1.2129718785        1.8034860918
 H         6.1347254168       -1.7559554386        2.2553965542
 H         7.2917749910       -1.1662585174       -1.6632211822
 H         7.8573390431       -2.1764720920       -0.2780810540
 H         6.2067220199       -2.3810039915       -0.8569793087
 H        10.0152303829        1.7073541584       -1.3845793734
 H         8.5820572753        2.6697259037       -0.6857136039
 H        13.3542809050        1.4577283027        1.0309066201
 H        14.7353397288        2.1757289329        0.1769274347
 H        13.7719934438        3.1479678082        1.3288543149
 H         9.7787145137        4.4848610317       -1.0591457380
 H        11.1049361059        4.1814099734       -2.1021812328
 H        11.1122583322        5.5450744643       -1.0537692643
 H        12.7412797214        5.1813360497        0.9485967747
 H        11.0528521043        5.1252260087        1.4640370224
 H        12.0321907750        3.9436496887        2.0595926609
 Na       -0.0627515463        0.2611261192       -2.0012776534
