155

 C       -12.8969662289       -1.5296655892        2.3092308369
 C       -11.6480721334       -2.4043295523        2.0212436296
 C       -10.3160893091       -2.0060701191        2.9674152854
 C        -9.0429781056       -2.4968557752        2.2357030743
 C        -8.3217264586       -3.8302907437        2.7065355828
 C       -10.3072822837       -0.4385987062        3.0580666808
 C       -10.6767765916       -2.6737678899        4.2878140580
 O       -11.5707187652       -3.1838910229        1.1378319792
 O        -8.6168048721       -1.7903820474        1.3634658726
 C        -7.2726760476       -4.3473536363        1.8445855460
 C        -5.8606862932       -4.3702397555        2.4704395172
 C        -4.6075974534       -5.0858067385        1.8749317031
 C        -4.4500576245       -4.5281072386        0.3791988119
 C        -3.6002098529       -3.2695752250        0.0250178497
 O        -5.6766490230       -3.6284592468        3.3840486596
 O        -5.1158093126       -5.0826028103       -0.4201035569
 C        -3.3440102165       -4.8780812648        2.7214868349
 C        -5.0876221295       -6.5596094764        1.7291289674
 C        -3.8048988398       -2.9038548417       -1.4586184582
 C        -2.7099492604       -1.9356995121       -1.9946787316
 C        -2.6257715151       -1.3940140099       -3.3822465368
 C        -2.8878654649        0.1724150724       -3.3415990392
 C        -4.2717172654        0.7092520592       -3.6959259621
 C        -1.2132770738       -1.6395565511       -4.0437788342
 C        -3.8676480966       -2.0185522097       -4.2700933102
 O        -1.8283930705       -1.6334611499       -1.1940588820
 O        -1.9363992715        0.8690095998       -3.2189987785
 C        -4.6869052780        1.9103303278       -2.8215918460
 C        -4.8499954172        1.5265314964       -1.3113878715
 C        -5.3273514278        2.6001573251       -0.3056141561
 C        -4.1740932841        2.5830309232        0.7368927704
 C        -3.9376449855        1.3839540793        1.6848710355
 O        -4.7062657166        0.3593146374       -0.9634285225
 O        -3.3519006170        3.4838960892        0.7313393774
 C        -5.5681848989        3.9510396464       -0.8741071307
 C        -6.6987172625        2.0667265294        0.2948784066
 C        -2.4457851718        1.3612280723        2.3690330148
 C        -1.3852634409        1.0998700481        1.3473917709
 C         0.1559528901        0.9168891923        1.8169511558
 C         1.2325420240        1.2981442784        0.6072523833
 C         1.8009333895        2.6984314409        0.6406571348
 C         0.3481178500        1.8267666552        2.9997388044
 C         0.3831037857       -0.5518992124        2.2013188709
 O        -1.7499831189        0.9434820259        0.1472333323
 O         1.5308599948        0.4792828836       -0.2585989511
 C         2.5377475891        3.1380158728       -0.7262903804
 C         1.9665685057        2.4043931928       -1.9069235385
 C         3.0097333105        1.7363432813       -2.9651245404
 C         2.8695197526        0.2147114641       -2.6236831288
 C         4.0925182703       -0.6827747665       -2.2585972144
 O         0.8350231516        2.4550961791       -2.1808795344
 O         1.7964808499       -0.2969255918       -2.8244121418
 C         2.2797829661        1.9678300950       -4.3425411481
 C         4.4343660610        2.4071466380       -2.9131345477
 C         4.0808274596       -1.0424272671       -0.7400701088
 C         5.0695159416       -0.1950471577        0.1129019760
 C         6.6335645350       -0.5738288125        0.3490352284
 C         7.5178478965        0.7843948663       -0.1956009042
 C         8.9318055825        0.9006009591        0.3640873286
 C         6.8327876284       -0.6773186630        1.9023748814
 C         7.0339123080       -1.8297517521       -0.3655216741
 O         4.5976404456        0.7853338260        0.6415882199
 O         6.9384579036        1.5516700439       -0.9393044092
 C         9.7665961110        1.9233210374       -0.4435445141
 C        10.6656077652        2.8368796043        0.3971645296
 C        11.6950513478        3.7598854612       -0.3307069596
 C        12.9339412544        2.8489968462       -0.8063261663
 C        13.7611949924        2.1091290229        0.1951837652
 O        10.6704183782        2.6090398028        1.5876372061
 O        13.1652408055        2.7740687079       -1.9835094519
 C        11.0365740537        4.4040563417       -1.6526771728
 C        12.2320057086        4.9343861728        0.6244959598
 H       -12.8192043956       -1.0541864230        3.3054967746
 H       -12.9965548878       -0.7485290727        1.5466156521
 H       -13.7928224447       -2.1802153841        2.2037872568
 H        -7.8611346426       -3.5603166015        3.6126334220
 H        -9.1003576006       -4.5676770474        2.9338395201
 H        -9.3591895938       -0.1849254006        3.5408698087
 H       -11.1044829617        0.1220430251        3.6104026200
 H       -10.2401924680       -0.0456662883        2.0638028699
 H       -11.5481488518       -2.2394824219        4.6624659145
 H       -10.8127104320       -3.7448752893        4.2922530371
 H        -9.9512799454       -2.4604410919        5.0361577926
 H        -7.5356314495       -5.3235160050        1.4502593702
 H        -7.1159381724       -3.8004257789        0.9116650348
 H        -3.9531832556       -2.4529664009        0.6024275076
 H        -2.5334344127       -3.4590696639        0.1774899367
 H        -2.5515914764       -5.4502467484        2.5558542210
 H        -3.5188051225       -5.0568443165        3.7344032655
 H        -2.9040922675       -3.8513490946        2.8231874546
 H        -4.3261584994       -7.2623893823        1.4274649536
 H        -5.5833144582       -6.7459984425        2.6461640242
 H        -5.9685099495       -6.5245090847        1.0095521126
 H        -4.7424861995       -2.4334223013       -1.6076820621
 H        -3.7836831410       -3.7662786299       -2.0857259018
 H        -4.0862987119        1.1151968247       -4.6629544438
 H        -5.0208442804       -0.0762736928       -3.7719413825
 H        -1.2903226767       -1.7811967961       -5.0983085333
 H        -0.9067582973       -2.6043668291       -3.7098982005
 H        -0.3963229125       -0.9456997853       -3.7706494172
 H        -3.4479885784       -3.0137079125       -4.6028345923
 H        -4.7338547803       -2.1626834201       -3.5993171251
 H        -4.0080028666       -1.4233792043       -5.1838135686
 H        -4.0100342877        2.7016693296       -2.8933332535
 H        -5.7209025850        2.0934577998       -3.1721401360
 H        -4.7222856221        1.4837822773        2.4726673268
 H        -4.2788290143        0.4256239634        1.1437461651
 H        -4.6388133704        4.3059190141       -1.2747731595
 H        -5.9486895713        4.4954534756       -0.0018779222
 H        -6.3805446515        3.9488118548       -1.5959335753
 H        -7.4248360396        2.3621139663       -0.4506629700
 H        -6.7422024938        0.9616386084        0.4312793044
 H        -6.9233488766        2.5585848255        1.2703673536
 H        -2.3448282159        0.8512157343        3.3251106678
 H        -2.2526852078        2.4005311857        2.7396362618
 H         1.1428903293        3.4383023539        1.0034541723
 H         2.5588970573        2.6385527198        1.4716128337
 H        -0.0859583079        2.8062215032        2.8038683369
 H         1.3542922126        1.8981327008        3.1907793596
 H        -0.1753711408        1.3403483076        3.7930731400
 H         1.1043778119       -0.7232486704        3.0679976002
 H        -0.5491184165       -0.9648561328        2.5732551905
 H         0.6468916875       -1.1089763511        1.3389774387
 H         2.1950727406        4.1391692461       -0.8954991561
 H         3.6071554704        3.1338713004       -0.6631374264
 H         3.7916709396       -1.5479289764       -2.8403840544
 H         5.1409725002       -0.3415733725       -2.6766540470
 H         2.0655501093        3.0547182602       -4.5318703245
 H         1.3461877950        1.3444841531       -4.4139089876
 H         2.9888103712        1.6109313004       -5.1190471900
 H         4.9805083085        2.2286468699       -3.8369545388
 H         4.2898249502        3.5216103514       -2.7719222395
 H         5.1276075457        2.1670091006       -2.1022485417
 H         4.2188513052       -2.1138923954       -0.6143087478
 H         3.1196981920       -0.8244540783       -0.3905718948
 H         8.9942737215        1.2458758128        1.4128742719
 H         9.4740650411       -0.0447431302        0.3520952815
 H         6.7377288681        0.2229267451        2.4562109338
 H         7.8230896423       -0.9677729651        2.1436582000
 H         6.2147075104       -1.4855687447        2.3466794255
 H         6.3723113741       -1.8956183025       -1.2526205171
 H         8.0556268186       -1.8502754162       -0.7546324245
 H         6.8637861322       -2.6516311601        0.3557511143
 H        10.4753515176        1.3649606872       -1.0263897275
 H         9.2128822355        2.5652661035       -1.1915609004
 H        13.1178471773        1.5433618575        0.9213847391
 H        14.4290816872        1.3689855377       -0.3413564898
 H        14.4189497404        2.8473223404        0.7323242626
 H        10.3861727754        5.2646327205       -1.5131773591
 H        10.4840092656        3.6776419807       -2.2642877521
 H        11.9366352330        4.6358520745       -2.2690351845
 H        13.0306731865        5.5043913856        0.1289667816
 H        11.4361991765        5.7246832227        0.7379928011
 H        12.6641895110        4.5588797148        1.5939960820
 Na       -0.1389039800        0.3155651625       -1.5507521384
