155

 C       -13.1250684885       -1.6674564405        2.4503792191
 C       -11.7823258408       -2.3137491722        2.0564455046
 C       -10.4418976596       -2.0433155038        2.9835128793
 C        -9.2009449899       -2.6752557818        2.2248218106
 C        -8.5873137004       -3.9963112871        2.7051175895
 C       -10.2755704047       -0.5587978680        3.2481785179
 C       -10.7026931921       -2.7935446376        4.3539697585
 O       -11.6973407333       -3.1127586399        1.1243645507
 O        -8.5425240652       -1.9372249123        1.4945138796
 C        -7.3694240563       -4.4170154201        1.7820868021
 C        -6.0149733994       -4.1875723838        2.3846773650
 C        -4.7813102575       -5.0320019555        1.7448294051
 C        -4.5637608822       -4.4882910759        0.2615732849
 C        -3.4171021231       -3.3777101747        0.0580663299
 O        -5.7483660275       -3.4014588902        3.3301409947
 O        -5.3799505578       -4.8361510986       -0.6253423134
 C        -3.5702374555       -4.7813431608        2.5985917651
 C        -4.8011953448       -6.6195497633        1.7243354419
 C        -3.6914334890       -2.7785848029       -1.3102410959
 C        -2.6429494012       -1.7688172003       -1.7850185094
 C        -2.7390563016       -1.3168433589       -3.4467452888
 C        -3.0524242907        0.1550391023       -3.2044325025
 C        -4.4553399002        0.7087771725       -3.5928478142
 C        -1.2818866014       -1.6466106257       -4.0413455411
 C        -3.6855412845       -2.1034208651       -4.3504623887
 O        -1.6191118894       -1.5603882094       -1.1816246361
 O        -2.2222197037        0.9802839609       -2.7639435998
 C        -4.7890681172        1.9948757806       -2.8573762037
 C        -4.7873519583        1.6991140043       -1.3647793103
 C        -5.3199647255        2.6771533021       -0.1716703911
 C        -4.0988723577        2.6789611447        0.8819559277
 C        -3.8259581755        1.3940153271        1.7770270780
 O        -4.5298373211        0.5710817250       -1.0457412950
 O        -3.3198237645        3.5736592224        0.8496857004
 C        -5.3384076804        4.0850817968       -0.7236968861
 C        -6.6193393923        2.2538300576        0.4180554314
 C        -2.4532967880        1.3478298447        2.3107405539
 C        -1.2729236392        1.0233925901        1.3432597328
 C         0.1581095824        0.9798712821        1.8735391599
 C         1.1884242689        1.2926509799        0.7165437400
 C         1.8639880601        2.6896808505        0.6273997337
 C         0.6059672457        1.8433326392        3.1902339575
 C         0.3002558660       -0.5753810272        2.1599115416
 O        -1.6131860070        0.8445998629        0.2235638353
 O         1.5758487992        0.3346420894        0.0274063456
 C         2.7122955907        2.7728140360       -0.6200209166
 C         2.0281511833        2.2673482746       -1.8532414750
 C         2.8156257179        1.5952496633       -3.0304638920
 C         2.7434435128        0.0966022101       -2.7151586519
 C         4.0647184142       -0.6957904450       -2.3393616032
 O         0.7789661746        2.4690272023       -1.9391680676
 O         1.6974962400       -0.5045495947       -3.0426290850
 C         2.1732350835        2.0003584773       -4.4139633726
 C         4.2691712741        2.1102159621       -3.1195097523
 C         4.3448368077       -0.9934348605       -0.8806901321
 C         5.1519393150       -0.1248760152        0.0424818548
 C         6.7377822168       -0.4081137306        0.3611158512
 C         7.6214320808        0.6721970673       -0.3137989731
 C         9.0138596503        0.9969436459        0.4376005228
 C         6.8148766064       -0.4519721176        1.8894044769
 C         7.2351852256       -1.7860117671       -0.2876881723
 O         4.5251853160        0.7246210955        0.6460937778
 O         7.1408268834        1.3900132312       -1.1371656258
 C         9.8219836063        1.9458122524       -0.3869093083
 C        10.7935129417        2.8207194681        0.2945787268
 C        11.7271651366        3.7231239835       -0.5966388516
 C        12.9495813096        2.8266863047       -1.0754153105
 C        13.6293371230        2.1678809343        0.1642267983
 O        10.7746450947        2.9048576449        1.5122870200
 O        13.3717520973        2.5918528735       -2.1772830888
 C        10.9388145654        4.4629303799       -1.7496900305
 C        12.3955073380        4.7914578831        0.3920715733
 H       -13.3350923256       -1.7862695341        3.5042396375
 H       -13.0267985330       -0.5895838283        2.2826413899
 H       -13.9018372891       -2.1026111652        1.8542327932
 H        -8.2508965086       -3.9010700405        3.7867506004
 H        -9.4125675683       -4.7283935943        2.6192171547
 H        -9.4949086988       -0.2646643544        3.9548347806
 H       -11.2008002196       -0.2155595913        3.6512373124
 H       -10.1419413666        0.0410186665        2.3237389673
 H       -11.4727710392       -2.3802347804        5.0478820488
 H       -11.0307406728       -3.7661302266        4.1671179266
 H        -9.8941351920       -2.8429427062        5.0790005945
 H        -7.4315924226       -5.4414271227        1.4309930766
 H        -7.2231383417       -3.8556551419        0.8420343339
 H        -3.5492116549       -2.5258975750        0.8004935814
 H        -2.3952217315       -3.8049471164        0.0481587789
 H        -2.5099125042       -5.0989561038        2.1999277101
 H        -3.6439750468       -5.2604708438        3.6100631322
 H        -3.3717806399       -3.8203376074        2.9227223110
 H        -3.7664969542       -6.8962931838        1.5216046205
 H        -5.0820863883       -6.9035592020        2.7382567507
 H        -5.4498605695       -7.0423917623        1.0287125728
 H        -4.6905791952       -2.2600901218       -1.4634431044
 H        -3.7011984953       -3.5294855297       -2.1877865217
 H        -4.5833206752        0.9141074084       -4.6887121023
 H        -5.1428739397       -0.0996920043       -3.3553970938
 H        -0.9510161772       -1.0262677758       -4.9024738801
 H        -1.2634728122       -2.7637782787       -4.3571087240
 H        -0.5551010417       -1.5128148657       -3.2986541623
 H        -3.4271731172       -3.1167099169       -4.2213832703
 H        -4.6784212704       -1.9408751665       -4.0639446288
 H        -3.4219865453       -1.8478848068       -5.3529520182
 H        -3.9880096705        2.8039159519       -3.0389116945
 H        -5.8237113779        2.1939867268       -3.1752398334
 H        -4.5837002517        1.4896868544        2.5519912044
 H        -4.1250908945        0.5218928116        1.2607481263
 H        -4.3328909493        4.2297633209       -1.1119293759
 H        -5.6985040653        4.7695790200       -0.0026502102
 H        -6.0426360926        4.0860614450       -1.5377058201
 H        -7.4368076145        2.4377274463       -0.3237504959
 H        -6.6015501676        1.2296308997        0.7235022713
 H        -6.7343508235        2.8661573320        1.3066625024
 H        -2.3630090892        0.7277882465        3.2274998143
 H        -2.3376950370        2.2954073049        2.8222481085
 H         1.0971863558        3.5454608796        0.6739270633
 H         2.5103665049        2.9277550850        1.4626195078
 H         0.4208341039        2.8847000393        2.9876146377
 H         1.6717290226        1.5707816038        3.4342369520
 H        -0.0943866007        1.5398870636        3.9854451916
 H         1.3065525509       -0.8193979825        2.0813157624
 H        -0.1244033384       -0.6633179366        3.1666270081
 H        -0.2530419579       -1.2634666934        1.5200756445
 H         3.0506275024        3.8489600714       -0.6502375704
 H         3.5800208472        2.0997508173       -0.4797472508
 H         3.9075973519       -1.6589744082       -2.8848224054
 H         4.8585780950       -0.1980140818       -2.7601984641
 H         2.3301315927        3.0270738743       -4.5924501536
 H         1.1655775007        1.7820762304       -4.4574155422
 H         2.7181258850        1.4938281967       -5.2016102062
 H         4.6585583855        1.4896614551       -3.9624571382
 H         4.4174271821        3.1607855841       -3.4162470454
 H         5.0118435791        1.8863182771       -2.2822760275
 H         4.8106552120       -1.9834175171       -0.8652957971
 H         3.2987300341       -1.1291029367       -0.4168831104
 H         8.8372208129        1.3521920761        1.4786778668
 H         9.6257784505        0.0604771786        0.4843042533
 H         6.8359824249        0.5797074965        2.3626690846
 H         7.7278026148       -0.9431328031        2.3271075972
 H         6.0304955928       -1.0860729489        2.3081716250
 H         7.6632001750       -1.7194629008       -1.2771950378
 H         8.0794227409       -1.9966188625        0.3674902083
 H         6.4921835090       -2.5818728123       -0.1115586141
 H        10.3966069043        1.3012871656       -1.1260331471
 H         9.1761666029        2.5380546094       -1.0473098454
 H        12.9068896319        2.1749140642        0.9644279692
 H        13.9314916604        1.1556061205        0.0253998392
 H        14.5169922314        2.7082015883        0.4643066740
 H         9.9393251789        4.7120077443       -1.3936774395
 H        10.8062550585        3.8578595759       -2.6070166713
 H        11.4135007260        5.3575432684       -2.0064218894
 H        13.1936245748        5.3097878112       -0.1245792843
 H        11.7747473868        5.5291340841        0.7511267241
 H        12.8724517249        4.2546187341        1.1550820451
 Na       -0.4107538860        0.2780800231       -1.6719810074
