155

 C       -13.3328529503       -3.8304457566        4.2803120132
 C       -12.3592900632       -3.6385593890        3.1043649109
 C       -10.9995928693       -2.9702985976        3.6580853161
 C        -9.8041392361       -2.8150992110        2.5810592395
 C        -9.6580200458       -3.7940752970        1.4302060161
 C       -11.2689675495       -1.4903525129        4.1256664855
 C       -10.4433924647       -3.7470828483        4.8919627927
 O       -12.6330323762       -3.7088378350        1.9254635716
 O        -9.1247586677       -1.7911289091        2.6605355687
 C        -8.3032639777       -3.8482364321        0.7408982511
 C        -7.2743100599       -4.8006523446        1.4095342035
 C        -5.8456918518       -4.2006970945        1.6657522293
 C        -5.2741725942       -3.7609677469        0.3106414522
 C        -4.0017249745       -2.7332150248        0.2780759835
 O        -7.5509942898       -5.9619357174        1.7709628821
 O        -5.8317204540       -3.9979535704       -0.7504366014
 C        -6.0590617936       -3.0544362475        2.6500400252
 C        -4.8753319457       -5.2887333629        2.2704138857
 C        -3.9710895795       -2.1553576926       -1.0862577084
 C        -2.6373707152       -1.5652452008       -1.4809251950
 C        -2.6321573969       -0.5834580555       -2.7521702506
 C        -2.4430792760        0.8166661158       -2.2576368014
 C        -3.0538997726        2.0342687233       -2.9679421598
 C        -1.4418274779       -0.9315626893       -3.6455402588
 C        -3.8798681307       -0.7467181891       -3.7545577017
 O        -1.5816129570       -1.9604832295       -0.9943473139
 O        -1.4683929409        1.0238368467       -1.4782020980
 C        -3.4163579668        3.2549015281       -2.0150985950
 C        -4.1567438833        2.7032055634       -0.7876725494
 C        -4.2511444843        3.7289232307        0.4959525528
 C        -3.0018954324        3.2037766899        1.2963546367
 C        -3.3760448754        2.0881635231        2.4003594219
 O        -4.5935985598        1.5862307900       -0.7886035793
 O        -1.8903229259        3.6988756416        1.2950775767
 C        -4.0333973408        5.2005602480        0.1251516545
 C        -5.5561277424        3.4925280836        1.2444829348
 C        -2.1035589004        1.8919726216        3.2542250073
 C        -1.1200114460        1.0857990967        2.4904336247
 C         0.3827688500        0.8798726690        3.1290955911
 C         1.4652377167        0.7951721053        2.0074616562
 C         2.2104679053        2.0858262839        1.7292899658
 C         0.5947563314        2.0993396617        3.9836376142
 C         0.4754696834       -0.4917970520        3.8478036638
 O        -1.3778293917        0.4797496200        1.4444944642
 O         1.5724115258       -0.2549461768        1.3580287068
 C         3.0203185707        2.2425564383        0.4240145547
 C         2.2111049099        1.8884367203       -0.7947101453
 C         2.7834568986        1.4420813934       -2.2448249096
 C         2.7630712773       -0.0805540927       -2.4803311844
 C         3.9169775791       -0.7786506384       -3.2518329224
 O         1.0427481013        2.0605404974       -0.7391776339
 O         1.7579052361       -0.6371260763       -2.1662610447
 C         1.7878775984        2.0054068589       -3.3099596572
 C         4.2361299605        2.1383458865       -2.5709506477
 C         4.8429670191       -1.5866709723       -2.3735072581
 C         5.3095530170       -0.6836725884       -1.1349715031
 C         6.8528014391       -0.3134181818       -0.8884385399
 C         7.3749558183        0.7562277064       -1.9758468849
 C         8.7726779156        1.2344104343       -1.4412133836
 C         6.9229347499        0.4701441284        0.4647539172
 C         7.7734262284       -1.5830493464       -0.9849928015
 O         4.3887739492       -0.2295355976       -0.4658489212
 O         6.8301020584        1.0415387773       -2.9950731356
 C         9.6727593605        1.7149985356       -2.6359568852
 C        10.7145307633        2.7464416043       -2.1782857986
 C        12.0220639680        2.9877298602       -3.0638261010
 C        12.9940050429        1.8694657817       -2.6198934626
 C        14.1519679813        2.1796916399       -1.7188410958
 O        10.6795742525        3.1913516486       -1.0320717841
 O        12.8267032185        0.7343076967       -3.0486524819
 C        11.7699619372        2.8376877150       -4.5854381619
 C        12.5058207586        4.4183350337       -2.8069214624
 H       -13.2524132683       -4.9029230722        4.5435942316
 H       -13.0679156527       -3.1792087814        5.1073400127
 H       -14.3767558477       -3.6999251548        3.9700974353
 H        -9.8056555729       -4.8117567104        1.8247274923
 H       -10.4169662489       -3.6539921081        0.7359211304
 H       -10.2469054349       -1.0524511099        4.2405471784
 H       -11.8456643747       -1.3257220581        5.0327528530
 H       -11.7289201631       -0.9833233760        3.2839247728
 H       -10.8386059710       -3.3183191671        5.7604602913
 H       -10.7114276220       -4.8302700690        4.7636671799
 H        -9.3942579733       -3.4998137008        4.8640431084
 H        -8.2760857640       -3.9732384539       -0.4021002024
 H        -8.0189704525       -2.7421487660        0.8158884954
 H        -4.0394122478       -1.9797008013        1.0474405520
 H        -3.0942881974       -3.2070888372        0.4440976157
 H        -5.0945138111       -2.5396539846        2.7276274830
 H        -6.2391404105       -3.4633656801        3.6531703005
 H        -6.8366242009       -2.4410919773        2.3364464038
 H        -4.2945708599       -4.9739744664        3.1182573226
 H        -5.5001486831       -6.0761966716        2.5259753457
 H        -4.2757550193       -5.7530802919        1.4367110386
 H        -4.6834838390       -1.3536722261       -1.1281265518
 H        -4.3791523917       -2.8737693765       -1.8074265402
 H        -2.3325040559        2.5076568467       -3.6850443763
 H        -4.0105738168        1.8008801309       -3.3881240030
 H        -0.5297637540       -0.4384565811       -3.2150673544
 H        -1.6234658319       -0.6605614570       -4.6196920400
 H        -1.2860226670       -2.0651531893       -3.5662955487
 H        -4.0377984143       -1.8138556020       -3.9447625218
 H        -4.7948646256       -0.4033897937       -3.3017400093
 H        -3.6404287705       -0.2969592393       -4.6695472581
 H        -2.4652601455        3.7244173500       -1.7026216683
 H        -3.9886387483        3.9266635425       -2.6571527773
 H        -4.2708368033        2.4953914308        3.0101489080
 H        -3.7436351192        1.1564105869        1.9779484622
 H        -3.0124575524        5.4514204663       -0.1657423757
 H        -4.2880799413        5.8014799598        0.9738713747
 H        -4.5205677462        5.6533668394       -0.7241870039
 H        -6.4443926149        3.8499546764        0.6268954291
 H        -5.7465577722        2.4268218482        1.3164567183
 H        -5.6689350269        4.0290754843        2.1956756709
 H        -2.4439905474        1.3194125492        4.1249597664
 H        -1.7545884841        2.7537904561        3.7939586599
 H         1.4283987252        2.9194914582        1.7494233523
 H         2.7676769518        2.2931824327        2.6036653577
 H         0.5760799255        3.0411816928        3.3820426469
 H         1.5331262460        2.2785714802        4.3955560303
 H        -0.1798897064        2.1657936979        4.8085608384
 H         1.4114106747       -0.5763841500        4.4610550894
 H        -0.4037926868       -0.8052282053        4.4017087809
 H         0.6252909773       -1.2202283113        3.1044082759
 H         3.3161889245        3.2501857502        0.1641185413
 H         3.9422478094        1.6210162576        0.4119644607
 H         3.5008088615       -1.3646264349       -4.0851971281
 H         4.5496051410        0.0454306302       -3.8065513267
 H         1.5688293478        3.0307945414       -3.0089905626
 H         0.7839397965        1.5300421205       -3.2929179063
 H         2.1262324827        1.8847966319       -4.3421885700
 H         4.4701950043        1.9085278860       -3.5379485928
 H         4.1313687566        3.2125221066       -2.4201963271
 H         5.0135651969        1.7399680782       -1.9856994051
 H         5.6639255121       -1.8434721793       -3.0122264820
 H         4.4735476864       -2.5353675665       -1.9774748895
 H         8.5673902737        2.1151608976       -0.8336132482
 H         9.3420976874        0.5092369657       -0.8591090340
 H         6.3705068406        1.4257667784        0.4143534167
 H         7.9672562184        0.6741445244        0.6688040249
 H         6.5963793997       -0.1668487338        1.3504537822
 H         8.0857974037       -1.8705529265       -2.0088884993
 H         8.6463092975       -1.5397561210       -0.3640415578
 H         7.2083488867       -2.4980038145       -0.5535693189
 H         9.9496310203        0.7829126948       -3.1223600875
 H         8.9401330564        1.9695577619       -3.3465440367
 H        15.0109312418        1.5645268273       -2.0766196928
 H        14.4211769659        3.2554557168       -1.8212683553
 H        14.0031545574        1.9099826259       -0.6649211982
 H        11.0031232208        3.4720896848       -5.0891096711
 H        11.6490713731        1.8370794534       -4.9722932692
 H        12.7495035001        3.1944601133       -4.9301462862
 H        13.4379518414        4.6873759541       -3.2302051068
 H        11.7561326518        5.0428679244       -3.3502350743
 H        12.4542583319        4.6193413881       -1.7288582568
 Na        0.1055028180       -0.0262439707       -0.3848212848
