155

 C       -13.3213154552       -4.2394769127        4.3329667038
 C       -12.3328339267       -3.6912080424        3.2616497188
 C       -11.0255534242       -2.9355230732        3.6730513967
 C        -9.8333418251       -2.8116353687        2.5365459951
 C        -9.9144637238       -3.8013411380        1.3147012174
 C       -11.4357868924       -1.5646676444        4.2170873883
 C       -10.3172530726       -3.9271176605        4.7072915695
 O       -12.7172479093       -3.5302467316        2.1098910302
 O        -8.9588598091       -1.9676200338        2.6592110183
 C        -8.4703731485       -3.8725904739        0.5640542659
 C        -7.4962056784       -4.8264235883        1.3380201626
 C        -5.9706407144       -4.1611193488        1.7313947540
 C        -5.3024472806       -3.6489840796        0.3735698209
 C        -3.9021653232       -2.8727686621        0.3149479188
 O        -7.6167837622       -5.9561626544        1.6513383309
 O        -5.8579432998       -3.9795805944       -0.6301197318
 C        -6.1054345382       -2.9487969227        2.8239414348
 C        -5.0247338810       -5.2597837951        2.3261432078
 C        -4.0017650485       -1.7395159571       -0.8028851861
 C        -2.5783234818       -1.3613966916       -1.4514069593
 C        -2.6027127993       -0.6079428683       -2.8841291503
 C        -2.4220399152        0.9287065169       -2.4476021503
 C        -3.1969754889        2.0518298419       -3.0327470013
 C        -1.3525679963       -1.0356750978       -3.7366553276
 C        -3.9312771718       -0.8175126912       -3.5981706590
 O        -1.5289537414       -1.5140780001       -0.8335662560
 O        -1.5812708002        1.1080228102       -1.6261309318
 C        -3.0388494798        3.1472465386       -1.8571947290
 C        -3.8585392246        2.7274848760       -0.6455370657
 C        -4.2225960278        3.7937041414        0.5515887124
 C        -3.1536056113        3.2146674428        1.5856216172
 C        -3.3994492688        2.0929880825        2.5598681292
 O        -4.3971006414        1.6185444084       -0.5531750488
 O        -2.0118519865        3.6842879057        1.3796871160
 C        -3.8202910110        5.2317043197        0.0454964591
 C        -5.7372126989        3.6233014822        0.9053134001
 C        -2.2050871631        1.7170302868        3.3878044039
 C        -1.0686985124        0.9894162454        2.5008039447
 C         0.2780123594        0.8737222236        3.1913716837
 C         1.5267694410        0.8670220387        2.1167106441
 C         2.2514180521        2.2129600577        1.7193978941
 C         0.6601280530        1.9908107503        4.2195045075
 C         0.2610702962       -0.3908923601        4.0855296805
 O        -1.3805563092        0.3739682104        1.5011381179
 O         1.7858807261       -0.1989234840        1.6443941533
 C         3.1244536216        2.1427440015        0.4791340469
 C         2.2567557853        1.9702592702       -0.7941432309
 C         2.7273688022        1.5846627798       -2.2606145195
 C         2.7890236700        0.0052304584       -2.4649320833
 C         3.8752922594       -0.6255322076       -3.2916275824
 O         1.0539484989        2.2114713561       -0.6069649664
 O         1.8451752420       -0.6355343084       -1.9886855652
 C         1.6895538847        2.2204024830       -3.1692718668
 C         4.0756171192        2.3543558353       -2.4837963260
 C         4.8366940830       -1.4746855012       -2.4040861510
 C         5.4121766658       -0.5011629211       -1.3282478239
 C         6.9150842774       -0.4059888324       -0.9575732044
 C         7.5598257625        0.5717574495       -2.1568688058
 C         8.8987458235        1.1716013494       -1.7926961665
 C         6.9670469282        0.2094129392        0.4704823329
 C         7.5546645610       -1.7913822480       -0.9992897904
 O         4.5486272411        0.0787344260       -0.6812083539
 O         6.8924936969        0.7407206528       -3.1983857433
 C         9.7851441464        1.6760462592       -2.8871181049
 C        10.8102794529        2.6009825675       -2.3649568607
 C        12.0611440657        2.9474621980       -3.3624567860
 C        13.0484022547        1.8494229190       -2.7832234732
 C        14.0915139216        2.2148573720       -1.7576742334
 O        10.7524196683        3.0178778875       -1.2186706830
 O        12.8714903940        0.6962899843       -3.1327704582
 C        11.5778149610        2.5396726742       -4.7669975075
 C        12.3915570780        4.4457391131       -3.1732736048
 H       -13.5807644231       -5.2780439818        4.2129881001
 H       -12.9776472112       -3.9719760373        5.3349865956
 H       -14.2372193256       -3.6569395551        4.2075878522
 H       -10.1730166699       -4.8249619237        1.5757345704
 H       -10.6391130171       -3.4162962783        0.5239948786
 H       -10.6256987491       -1.0894016664        4.7289645951
 H       -12.2215542166       -1.7497323003        4.9544111226
 H       -11.8138009814       -0.9343664881        3.3787289947
 H       -10.9558964183       -3.8829852248        5.6578790171
 H       -10.3768591162       -4.9018675279        4.2353506007
 H        -9.3146358961       -3.4719418205        4.8616852713
 H        -8.5236639467       -4.3083113785       -0.3994266848
 H        -8.1954823415       -2.8679458622        0.4185788026
 H        -3.7178520022       -2.4360318368        1.3066212842
 H        -2.9776441820       -3.5580384631        0.1848513402
 H        -5.1249032413       -2.6434834891        3.0213169060
 H        -6.5227977426       -3.3488902256        3.7310159764
 H        -6.8996436996       -2.2128608382        2.3869488307
 H        -4.7557917032       -4.9494117908        3.3442172589
 H        -5.3645670449       -6.3311733791        2.1809955987
 H        -4.0792530781       -5.2291984432        1.8483818229
 H        -4.6061495021       -0.8339252895       -0.4489466222
 H        -4.6727221383       -2.2154934180       -1.5747423241
 H        -2.7403673693        2.5657844128       -3.8403351149
 H        -4.2575210742        1.8911823975       -3.2423264660
 H        -0.5642272920       -1.0240577810       -3.0329845860
 H        -1.1028683692       -0.2651508732       -4.5755697378
 H        -1.5188549512       -1.9525990064       -4.1630846116
 H        -4.4266808329       -1.7494770128       -3.2634449938
 H        -4.6338388757       -0.0782297583       -3.1991631770
 H        -3.7586789521       -0.6969594310       -4.7405815910
 H        -1.9678326077        3.2511650993       -1.6292676552
 H        -3.4023926447        4.0479108626       -2.3542103391
 H        -4.1939285541        2.4028177492        3.1605888070
 H        -3.8476944756        1.3178118954        1.9018879440
 H        -2.8342584707        5.4410308675       -0.3123124515
 H        -4.1806808491        6.0873084921        0.6473247384
 H        -4.3456854171        5.4943235642       -0.8922525543
 H        -6.3947952633        3.9811037410        0.1562472417
 H        -6.0838688522        2.6077494579        1.1221123660
 H        -5.9181413649        4.2538990845        1.7923617427
 H        -2.6101090085        1.2060553476        4.2867539269
 H        -1.8851886085        2.6372629707        3.9374387439
 H         1.6030190765        3.0323065941        1.7510273219
 H         3.0204078974        2.4580984310        2.5349533338
 H         0.6234190708        3.0049611246        3.9169680470
 H         1.7580932042        1.9776797885        4.5003038512
 H         0.0587784766        1.9311945874        5.0867164081
 H         1.2439938863       -0.8174444308        4.3137819740
 H        -0.1769315580       -0.1394681935        5.1279875723
 H        -0.4721657335       -1.2018019536        3.7253811886
 H         3.7497285645        3.0443773657        0.4514827071
 H         3.7730157490        1.2946130624        0.5874090696
 H         3.4556365105       -1.1367117941       -4.1573816576
 H         4.3699917863        0.1047384574       -3.7627919164
 H         1.4131651683        3.2021971676       -2.9047989561
 H         0.8213868963        1.6748080270       -3.0781443599
 H         1.9315290226        2.1277380993       -4.2195989451
 H         4.0623444333        2.6833661123       -3.6007343929
 H         4.0473918303        3.1672701387       -1.7176601799
 H         5.0082975423        1.8220851684       -2.2737303904
 H         5.6577208317       -1.8246125045       -3.0519418427
 H         4.4482694578       -2.2954341071       -1.8348167634
 H         8.6801430945        1.9724795576       -1.0840142826
 H         9.4341414125        0.3833658892       -1.2836193258
 H         6.7540286815        1.2872599788        0.3464581122
 H         7.8308643586        0.1122214984        1.1100657784
 H         6.1918684973       -0.2817513655        0.9706589055
 H         8.1126194442       -1.9288768375       -1.9196123109
 H         8.2997972950       -2.0290580649       -0.2106743510
 H         6.8374648078       -2.5529923220       -0.9577721467
 H         9.8833036396        0.8361478013       -3.5432625570
 H         8.9814739928        2.0950820521       -3.5736924315
 H        15.0485041439        2.1765731760       -2.1854314418
 H        13.9445024106        3.0773061308       -1.1949068665
 H        14.0335119661        1.3551030882       -1.1388786424
 H        10.7154420190        3.1158102263       -5.0219167681
 H        11.2338507642        1.5390212818       -4.7113585587
 H        12.2119418120        2.6952979235       -5.5955213832
 H        13.0460872504        4.7308173399       -4.0050211913
 H        11.6097499753        5.0980211522       -3.2357614371
 H        12.9860573631        4.5978595201       -2.2989891689
 Na        0.1777726900       -0.1618038028       -0.3227500207
