155

 C       -12.9989568750       -5.5962196010        2.5964106325
 C       -12.9263234112       -4.4042725980        3.5747255153
 C       -11.5005210262       -4.2143720085        4.3464179740
 C       -10.5162397913       -3.4548003231        3.4155828805
 C       -10.0144603564       -4.0813122449        2.1206348841
 C       -11.8314971940       -3.3994930782        5.6834840652
 C       -10.9445450834       -5.5442604244        4.6969739185
 O       -13.7864931020       -3.5741777895        3.7154427059
 O       -10.1363303567       -2.3647670187        3.8234850028
 C        -8.9233449223       -3.2884807894        1.4565041273
 C        -7.6297652601       -4.1227054435        1.2607640331
 C        -6.2580493196       -3.3384670518        1.4490686562
 C        -5.8220890976       -2.6834384253        0.0762773077
 C        -4.5689559889       -1.7922137461       -0.0797961870
 O        -7.6918109023       -5.3239432571        1.2515011268
 O        -6.4024657743       -2.9153694993       -0.9777418771
 C        -6.3537597586       -2.5154786921        2.7253201056
 C        -5.0942708640       -4.3510794615        1.7078467519
 C        -3.3308486896       -2.4621306048       -0.6148106373
 C        -2.1531399054       -1.4697908848       -0.9003706678
 C        -2.0623536387       -0.7464895670       -2.2637469194
 C        -2.1470104502        0.7568336588       -1.8397894548
 C        -3.4694531841        1.5363397908       -2.1824690363
 C        -0.6098343079       -1.0281859377       -2.8144955960
 C        -3.0266466045       -1.2406197012       -3.3689084078
 O        -1.3219057253       -1.2631132859       -0.0600434448
 O        -1.3923602101        1.3627353277       -1.1456212166
 C        -3.6359788306        2.9259223702       -1.6743038493
 C        -4.1753119549        2.9068359018       -0.1913542935
 C        -3.9112900795        4.1432065399        0.7869038107
 C        -2.8632546254        3.8719478323        1.9862250488
 C        -3.3292175013        2.8773111590        3.0290687336
 O        -4.8897966533        2.0244802598        0.1146526875
 O        -1.7772660553        4.3499024608        2.0819516986
 C        -3.4184768438        5.3902200672        0.0848388792
 C        -5.2560089696        4.5056161616        1.4722184398
 C        -2.2729864796        2.3255353108        3.9043201916
 C        -1.1579100304        1.5346123065        3.0284201673
 C         0.0931502671        0.7398518259        3.7135154042
 C         1.3738252949        1.2306130114        2.8950584963
 C         1.5814273994        2.6761157217        3.0877182899
 C         0.2789289942        1.0696958576        5.2128232921
 C        -0.1113255456       -0.7552410112        3.5178454749
 O        -1.3607748256        1.3855627358        1.8108960380
 O         1.8959735178        0.6536741017        1.9613112510
 C         2.5647624957        3.1892360393        1.9902820729
 C         1.9957913730        3.0490098283        0.4299610306
 C         3.0170744003        3.3692361204       -0.5886224434
 C         3.3725818013        1.7877052124       -1.1652297717
 C         4.5239022397        1.6214135008       -2.1561055620
 O         0.8216817544        2.7389884536        0.1946673640
 O         2.7066431487        0.8407327885       -0.8466799777
 C         2.2619075264        4.0442526102       -1.7930860000
 C         4.1714850341        4.1886207011       -0.0248993243
 C         4.8658423213        0.1363002885       -2.4225000983
 C         6.4361609328       -0.1480291593       -2.2168133279
 C         7.0763998689       -1.6446341156       -2.3349059862
 C         7.9607068987       -1.5022178374       -3.5718980475
 C         9.3152762060       -0.6995543361       -3.4273581745
 C         7.8510796020       -2.0697207357       -1.0366057762
 C         6.0174995062       -2.7103412282       -2.5708089041
 O         7.2070307283        0.7868745203       -2.0401344497
 O         7.7274890135       -2.1346754408       -4.6005663670
 C         9.8824725204       -0.2847168499       -4.7391532678
 C        10.4752868563        1.2015719999       -4.6156123984
 C        11.7181155853        1.6312233122       -5.5508438203
 C        13.0834450534        1.2947491716       -4.6845210654
 C        13.4179779857        2.0586244998       -3.4596774748
 O         9.8370039739        1.9998423636       -3.9637285754
 O        13.8523067461        0.4304226183       -5.0824010972
 C        11.6492925457        0.9262496520       -6.8966770802
 C        11.6370390323        3.2325965556       -5.6916971751
 H       -12.9731196976       -6.5623566952        3.0900566695
 H       -13.8077090089       -5.5594615238        1.8650847198
 H       -12.0422728938       -5.6312224349        2.0623107632
 H        -9.6340007273       -5.0151197296        2.3519964018
 H       -10.8479614395       -4.0979578864        1.3825394744
 H       -10.9625673724       -3.0794809768        6.2202603213
 H       -12.4729610259       -3.9686516081        6.3492851491
 H       -12.4691475271       -2.5223954563        5.3622481370
 H       -11.4466136311       -6.0717456131        5.4312832215
 H       -10.8519119223       -6.2118749413        3.8745075773
 H        -9.9891153485       -5.5078373554        5.1240424440
 H        -9.4019257883       -2.9716333038        0.4562541724
 H        -8.8315161734       -2.2530206604        1.9288179407
 H        -4.8454484974       -0.9765626332       -0.6371069293
 H        -4.3956176260       -1.4310665394        0.8978375998
 H        -5.4141489808       -2.1461600042        3.0561258176
 H        -6.8301685284       -3.3226301734        3.3672201956
 H        -7.1181726673       -1.8095609520        2.6436907098
 H        -5.0308341443       -5.0344169307        2.5996454594
 H        -5.0123097226       -4.9693667437        0.7961056954
 H        -4.0910252989       -3.9138380274        1.8412578631
 H        -3.6932566515       -2.9272450939       -1.4973055704
 H        -3.0247110013       -3.2271105822        0.0937447488
 H        -3.6564922957        1.5087475197       -3.2686123047
 H        -4.3614082918        1.0784428705       -1.6693671499
 H         0.1495916527       -0.1764804786       -2.6451237796
 H        -0.6220768710       -0.9353253325       -3.8343780753
 H        -0.2122643512       -2.0360256915       -2.6072860873
 H        -2.9666360246       -2.3182588504       -3.6182815650
 H        -4.0476508657       -1.0169185573       -3.1633637750
 H        -2.8128019598       -0.7208485022       -4.3267355397
 H        -2.6278963549        3.4556553161       -1.7982195020
 H        -4.3758180005        3.5333160235       -2.2490057854
 H        -4.1526427912        3.2998238222        3.6306702789
 H        -3.8220692423        2.0616484176        2.4712568495
 H        -2.3645316115        5.3267292549       -0.2309851355
 H        -3.3183347084        6.1684723751        0.8665080783
 H        -4.0782849776        5.7845310795       -0.7318457496
 H        -5.9267103271        5.0238061286        0.7929645704
 H        -5.6927398996        3.7213777628        2.0432822087
 H        -4.9422749656        5.2484551754        2.2505439205
 H        -2.6667314691        1.6052885517        4.6594848502
 H        -1.7684864373        3.0753971240        4.4947230056
 H         0.5641514080        3.1349481362        3.2148845418
 H         2.0915229304        2.9409454858        3.9901286966
 H         0.1558866459        2.1174449487        5.3556844454
 H         1.1550223695        0.6125719456        5.5277032621
 H        -0.5141999986        0.5763186204        5.8046730013
 H         0.7731394981       -1.3031038212        3.7347645366
 H        -0.7361651976       -1.2591513656        4.2823914927
 H        -0.5157322094       -0.8808840042        2.5929676004
 H         2.9353171480        4.1651226310        2.3289484259
 H         3.4917308368        2.6333624330        2.1292048911
 H         4.1987596838        2.2090078292       -3.0906837610
 H         5.4339689057        2.1819153902       -1.9185994404
 H         1.6546858937        4.8388153050       -1.4273552487
 H         1.6568731314        3.2767587048       -2.3330060487
 H         2.9276368431        4.4751722158       -2.5195198564
 H         4.7996250663        4.6167771048       -0.6876821173
 H         3.7740069610        5.0553265943        0.4442370054
 H         4.7196632603        3.6831295356        0.7826381169
 H         4.6361393729       -0.0746384377       -3.4845838986
 H         4.3028041586       -0.6316780958       -1.7934603463
 H         8.9583967273        0.1466165268       -2.8321966675
 H        10.0219910043       -1.3643318675       -2.9185673063
 H         8.4711388265       -1.3808139809       -0.4242967150
 H         8.3517697113       -2.9739996984       -1.2050878614
 H         7.0561021502       -2.2051153191       -0.3555231044
 H         5.2082133647       -2.2792053807       -3.1008949348
 H         6.4070271903       -3.4831799172       -3.2029470126
 H         5.7936160327       -3.1794644689       -1.6088068951
 H        10.5560924148       -1.0401179602       -5.1080874905
 H         9.0902272056       -0.2249423188       -5.5061716210
 H        12.6474636228        2.6884046943       -3.0503392201
 H        13.6275622363        1.2740292239       -2.7609653987
 H        14.2895086538        2.6174009530       -3.5952364675
 H        10.6675214910        1.1948841936       -7.2893587035
 H        11.8478093311       -0.1130616305       -6.7797800172
 H        12.3948257331        1.3133018848       -7.5672886427
 H        12.4767599695        3.5563387137       -6.2457696329
 H        10.7145260511        3.4984136727       -6.1603414316
 H        11.6570724754        3.8580407806       -4.7933667048
 Na        0.3707390232        0.3980112258        0.2291617971
