155

 C       -12.9575147041       -5.5665186436        2.4145474445
 C       -12.8411137812       -4.4100210327        3.3907008149
 C       -11.4893116744       -4.4392697535        4.2741233496
 C       -10.3186792903       -3.7477114643        3.5249690734
 C        -9.8079153977       -4.1104222658        2.0887754085
 C       -11.8544760446       -3.5854395466        5.5452367797
 C       -10.9959918169       -5.8970599656        4.6359406786
 O       -13.7058929219       -3.5705787109        3.5728480056
 O        -9.7964210734       -2.8407817457        4.1197863706
 C        -8.6766921755       -3.1265549390        1.6214962465
 C        -7.4062064342       -3.9102863732        1.3311189610
 C        -6.0561878265       -3.0728318435        1.4725584474
 C        -5.7078814540       -2.3240042411        0.1222789714
 C        -4.3378930025       -1.6362390106        0.1452710561
 O        -7.4339636680       -5.0473583988        1.1230841317
 O        -6.5192598173       -2.1531703921       -0.7602680269
 C        -6.1461117012       -2.0233907512        2.6235036700
 C        -4.9663755402       -4.0093142652        1.9705979736
 C        -3.1353574334       -2.4789043089       -0.2547458192
 C        -1.9661714077       -1.5722214463       -0.7683391453
 C        -2.0138800566       -0.7073284674       -2.0719197593
 C        -2.2670272885        0.8649294854       -1.5644709791
 C        -3.5218272979        1.6775843436       -1.9830386892
 C        -0.7138059650       -0.6819573370       -2.8435700182
 C        -3.1870526383       -1.1885991697       -2.9691932419
 O        -0.9685676147       -1.5744938947       -0.0835431636
 O        -1.3870661622        1.4742693944       -0.9906573024
 C        -3.5429367504        3.0534192745       -1.4395400348
 C        -4.1699824374        2.9912642937       -0.0736540183
 C        -4.0777871835        4.2310313404        0.7493583209
 C        -2.9311928025        3.8789394830        1.8135684571
 C        -3.3005070109        2.8138651789        2.8686192762
 O        -4.6322996588        1.9769890278        0.3697150460
 O        -1.7879843677        4.2956040543        1.7074992404
 C        -3.6534059909        5.6182686335        0.0133784396
 C        -5.4208687824        4.5453319731        1.5079742277
 C        -2.0864754581        2.3523512215        3.6604248704
 C        -1.2115835500        1.3182860861        2.9395642393
 C        -0.0095293035        0.6912855565        3.6532501947
 C         1.3427929889        1.4127792025        2.9817450872
 C         1.6978951063        2.8167830849        3.3731764014
 C        -0.2114574841        0.8163316680        5.1831345191
 C        -0.0068837695       -0.8371503281        3.2698012172
 O        -1.4527350697        1.0331369007        1.7135109902
 O         2.0658539571        0.7706166687        2.2064915074
 C         2.5909862570        3.4194964280        2.3311035475
 C         2.1243228671        3.2227591670        0.8638326452
 C         3.0669380500        3.1968693833       -0.3775940536
 C         3.2618310721        1.7461058931       -0.8496443938
 C         4.6219199174        1.5088707075       -1.4740145601
 O         0.9877226108        2.9050652550        0.6620195981
 O         2.4795489982        0.8360175293       -0.7201274912
 C         2.3254465853        3.9310292546       -1.5389572426
 C         4.3745343517        4.0171978170       -0.0067400870
 C         4.8879870589        0.1616837617       -2.1140814218
 C         6.3828458168       -0.1652417885       -2.0855529024
 C         6.8810498149       -1.5707338613       -2.5877232187
 C         7.7830591078       -1.4819442030       -3.8631669626
 C         9.1689382519       -0.8332266102       -3.7002087010
 C         7.6347343227       -2.1628737340       -1.4490476504
 C         5.6306864007       -2.5735579239       -2.8645687706
 O         7.1362786158        0.6975199512       -1.6671265091
 O         7.2902542270       -1.6364269889       -4.9725194281
 C        10.0341293922       -0.5361470471       -4.9026982872
 C        10.4501393530        0.9811265709       -5.0028509306
 C        11.5578479683        1.3726657631       -5.9352828291
 C        12.7998419559        1.0602820025       -5.0438427213
 C        13.2355587061        2.1219293245       -3.9684712332
 O         9.8959770875        1.7624703446       -4.2971814174
 O        13.2931600940       -0.0522496563       -5.1727048423
 C        11.6411654912        0.5060630218       -7.2595724751
 C        11.4133983600        2.8349660085       -6.3396970509
 H       -13.7373423068       -6.3137781021        2.6250670606
 H       -13.1144816873       -5.2144479830        1.3883617177
 H       -12.0040097007       -6.1122087635        2.3920720850
 H        -9.3371164269       -5.0222450652        2.1373569833
 H       -10.6072347275       -4.0823448883        1.3288718625
 H       -11.1881988020       -3.6364844077        6.3733846858
 H       -12.8140159386       -3.8722900253        5.9037220039
 H       -11.9406621561       -2.5364313672        5.1662786686
 H       -11.6888457979       -6.5932249439        5.0764740831
 H       -10.6033151338       -6.4188949025        3.8102715366
 H       -10.2823457131       -5.9070890075        5.4258725058
 H        -8.8591737965       -2.6636563583        0.5721114115
 H        -8.5092720831       -2.2436346735        2.3343567908
 H        -4.3098050533       -0.9014963508       -0.6252560775
 H        -4.0820003701       -1.1916879307        1.0593614887
 H        -5.0968666135       -1.8249035301        2.9186178078
 H        -6.4537762807       -2.6793998903        3.4635719528
 H        -6.6746780888       -1.1544754999        2.3714469643
 H        -5.1992913646       -4.6641266800        2.8164133247
 H        -4.6471061134       -4.7455662287        1.2772761772
 H        -4.0074906934       -3.4470760826        2.0791793739
 H        -3.3563643511       -3.2306489036       -1.0384101487
 H        -2.7165440040       -2.9001701926        0.6409423216
 H        -3.5335835475        1.8909742494       -3.0814053848
 H        -4.5087916876        1.2137321298       -1.6512901923
 H         0.2223379788       -0.8754632811       -2.2385430958
 H        -0.4507726478        0.2170931640       -3.2773667967
 H        -0.7159777757       -1.5400134454       -3.5526424450
 H        -3.0923093929       -2.2883061913       -3.1244063367
 H        -4.1826340217       -0.9838742792       -2.5149798048
 H        -3.1089792886       -0.9633339865       -4.0294434608
 H        -2.4947921161        3.6034192085       -1.5509406669
 H        -4.1853526953        3.6375900907       -2.1144854853
 H        -4.1077178620        3.1388918910        3.5306232202
 H        -3.7602375228        1.9773458912        2.3238639099
 H        -2.5971757222        5.4934626654       -0.3524731690
 H        -3.6462779772        6.4911037754        0.6917451357
 H        -4.3227681910        5.7129630589       -0.8582730339
 H        -6.2507564212        4.7910364052        0.7747969496
 H        -5.7650688979        3.6638606387        2.0294137531
 H        -5.2576883416        5.4442533681        2.1753484249
 H        -2.3304280544        1.9487098423        4.6419897856
 H        -1.4076994945        3.1070743572        3.9459178043
 H         0.8182527263        3.4729880891        3.5419629526
 H         2.1954096514        2.6836575261        4.3353075614
 H        -0.2961662102        1.8414463032        5.5146466825
 H         0.6079731226        0.4328902235        5.6453489295
 H        -1.1738092120        0.3018146314        5.3825215495
 H         0.8518563081       -1.3799805753        3.7831732124
 H        -0.9288707963       -1.3641254453        3.5798829953
 H         0.1623885663       -0.8796761265        2.1893862047
 H         2.6489032098        4.5290271493        2.4108562137
 H         3.6491371435        3.0853055726        2.4232596495
 H         4.9390294166        2.4280965989       -2.1045056953
 H         5.4216712212        1.7650146452       -0.7381979885
 H         2.5366655253        4.9372324536       -1.5757627516
 H         1.2404147689        3.7456063487       -1.4504478471
 H         2.6005491744        3.4228050673       -2.3965657893
 H         4.9468312394        4.0766706036       -0.9422959248
 H         4.1624541170        5.0349919154        0.1542741542
 H         5.1383522351        3.7435710979        0.7721722191
 H         4.6218500122        0.2134588567       -3.1985127607
 H         4.3222607872       -0.6408580864       -1.5432774527
 H         8.9090407599        0.1701665956       -3.2331676020
 H         9.6993748736       -1.5551803758       -3.0375987064
 H         8.3263672820       -1.4335410223       -1.0344287762
 H         8.1860110608       -3.0316508765       -1.7678117646
 H         6.9959558289       -2.4549456585       -0.5851706881
 H         5.4010538943       -2.4476518420       -3.9068621955
 H         5.9543588838       -3.5746405790       -2.6521751672
 H         4.7031868467       -2.4100412154       -2.2107543514
 H        10.9556464249       -1.0788266574       -4.9492963437
 H         9.6765382057       -0.8303827540       -5.8775654021
 H        13.0271155290        3.1027059688       -4.3738902985
 H        12.4741419392        2.0513218989       -3.2082971485
 H        14.1660808098        2.0285054738       -3.4699055505
 H        10.7290312876        0.7088691823       -7.8586243198
 H        11.8519193420       -0.5024812563       -7.0298901993
 H        12.4412417411        0.9336001656       -7.8461301604
 H        12.2694460979        3.4270785185       -6.4036535392
 H        10.8393530317        2.9646875269       -7.2651899314
 H        10.7743465631        3.2136851242       -5.5319408180
 Na        0.4155947662        0.5513660337        0.1510074507
