155

 C       -12.9919378617       -5.5002824881        2.0448675030
 C       -12.7427378045       -4.4767478956        3.1987514726
 C       -11.4131392822       -4.5021818596        4.3272062685
 C       -10.2011187704       -3.6934506588        3.6153592832
 C        -9.9088237804       -4.0051635746        2.1685628788
 C       -11.8011281976       -3.8203080740        5.6194370124
 C       -10.9212580022       -6.0020909675        4.5738550780
 O       -13.5346962970       -3.5813446776        3.2500333515
 O        -9.3829643400       -3.0231973102        4.2430416223
 C        -8.7606788894       -3.1787248694        1.6207747265
 C        -7.3459434531       -3.7897816845        1.5163308385
 C        -6.0271905429       -2.8823128487        1.7740898954
 C        -5.5970145059       -2.1340293607        0.4961443724
 C        -4.1086195484       -1.4386525440        0.2596480382
 O        -7.2280773825       -4.9434776766        1.0422901070
 O        -6.3942619476       -2.0006495995       -0.4042001420
 C        -6.3076608143       -1.8030572684        2.8535909154
 C        -4.9361740615       -3.8690489272        2.0474314709
 C        -2.9269360706       -2.3186187169       -0.3484852039
 C        -1.8320667643       -1.3856700465       -0.7913150779
 C        -2.0744995145       -0.6308273053       -2.1552066432
 C        -2.2655513413        0.8758700678       -1.6866235490
 C        -3.5212061670        1.5466071375       -2.1503297235
 C        -0.7045441251       -0.7419491077       -2.9049170982
 C        -3.1915935197       -1.1119148382       -3.0224343174
 O        -0.8335225305       -1.2612111749       -0.1163059891
 O        -1.3894760029        1.4426840111       -1.0995716873
 C        -3.7108745256        3.0427898959       -1.5720871576
 C        -4.0904758164        2.9982719091       -0.0977619185
 C        -4.0998483259        4.2649482308        0.7646623088
 C        -2.9746935783        3.9471633957        1.8409259618
 C        -3.3042881590        2.8980933442        2.8984678391
 O        -4.6333404419        1.9746556000        0.3663547715
 O        -1.8761837050        4.3460055217        1.7238129524
 C        -3.7028805047        5.6313370573        0.1255183269
 C        -5.4666486924        4.4744451646        1.5894805713
 C        -2.0720520455        2.4465570838        3.5381216765
 C        -1.2626688876        1.3321445323        2.8194450892
 C         0.0132313834        0.7270916624        3.5985129474
 C         1.2926027135        1.3633354063        3.1592872323
 C         1.6681313102        2.7867659742        3.5383474214
 C        -0.0896621342        0.8093712210        5.1871907742
 C         0.1655052901       -0.7783411707        3.2514082203
 O        -1.6079060201        0.8003552625        1.8368374467
 O         2.0482843089        0.7880382565        2.4279769700
 C         2.7223865194        3.2723215399        2.5405683008
 C         2.0411762138        3.1576334556        1.0918278377
 C         2.9060105871        3.3615999566       -0.2192442312
 C         3.3572856333        1.8597811589       -0.7788256833
 C         4.8003790736        1.5077000217       -1.2437086904
 O         0.8463919028        2.8892922430        0.9424459977
 O         2.4446139740        1.0460237151       -0.9269443064
 C         2.2160389897        4.0051859321       -1.3955042453
 C         4.2244129129        4.1357946913        0.1291861152
 C         4.8787216534        0.0999812532       -1.9641839505
 C         6.3548638931       -0.3658879667       -2.0927846070
 C         6.8259573399       -1.7735472854       -2.6982361131
 C         7.6305423974       -1.3577500991       -3.8812234328
 C         9.1257035679       -0.8540532459       -3.6060444187
 C         7.6886718735       -2.4965391193       -1.7067410046
 C         5.6943789771       -2.6567749071       -3.2088388322
 O         7.2159732727        0.3693469511       -1.6651569710
 O         7.2186479696       -1.2216611801       -5.0081735098
 C         9.8794705433       -0.6429978899       -4.9798823158
 C        10.2895887470        0.7837007928       -5.2717064141
 C        11.4293773400        1.1987851272       -6.1848823933
 C        12.7074113253        0.9104893379       -5.1959580683
 C        13.1009259485        2.1575863405       -4.3300316765
 O         9.8756118573        1.6389222835       -4.4757497386
 O        13.1305347827       -0.2098076706       -5.0838266357
 C        11.4702941277        0.2558762249       -7.5448936262
 C        11.4021548861        2.6279492125       -6.6257982687
 H       -13.9488729731       -5.9296735289        2.3230429265
 H       -13.1292000705       -5.0705285449        1.0501791344
 H       -12.2970893475       -6.3257780064        1.9281259715
 H        -9.6765604483       -5.1628814986        2.0550248796
 H       -10.7623122202       -3.7249959193        1.5471638034
 H       -10.9002777119       -3.3117066818        6.0210224191
 H       -12.2126475597       -4.4833890555        6.4160533713
 H       -12.4668352529       -3.0291161540        5.3644435724
 H       -11.5303857599       -6.5243142117        5.2640587731
 H       -10.8658829633       -6.7310202544        3.7080237548
 H        -9.9517490123       -6.0646300493        5.0529685311
 H        -8.9988836790       -2.8998498291        0.6262228904
 H        -8.6357657313       -2.2786815932        2.2024371018
 H        -4.1524176720       -0.6274908322       -0.4431262785
 H        -3.7199477610       -1.0207968351        1.2407182158
 H        -5.4563140868       -1.2696948300        3.1424683199
 H        -6.6122771951       -2.3527148615        3.7725832888
 H        -7.0654582551       -1.1432415072        2.3893118894
 H        -5.2058506742       -4.4563807877        2.9239964311
 H        -4.8164218283       -4.7087279901        1.2991982761
 H        -3.9430896312       -3.5629710632        2.0771865441
 H        -3.2925683930       -2.6130514219       -1.2745471099
 H        -2.5960072573       -3.1431022996        0.3050098271
 H        -3.4969642893        1.6391932627       -3.2255463925
 H        -4.4053218281        1.0544758291       -1.8664336662
 H         0.1929904348       -0.5193344889       -2.3206900111
 H        -0.6456188623       -0.0062284735       -3.7698120865
 H        -0.4882745058       -1.7310720961       -3.2463123769
 H        -3.0615734040       -2.1340863324       -3.3518884511
 H        -4.1269234838       -1.0200993244       -2.5458282308
 H        -3.2053614982       -0.5542037882       -3.9780454391
 H        -2.9260478127        3.6607291094       -1.6416929078
 H        -4.4546461043        3.5199506707       -2.2481914765
 H        -3.9450813257        3.2566297340        3.7157536757
 H        -3.8982881749        2.1421051609        2.3806116383
 H        -2.6733097220        5.6147603401       -0.2464481595
 H        -3.7758789341        6.3291670703        0.9937764725
 H        -4.3997880416        5.9278323480       -0.6798529472
 H        -6.2849518780        4.7095563121        0.9740627295
 H        -5.7220357069        3.4913144782        2.0303054329
 H        -5.3515067958        5.2719376477        2.2941610842
 H        -2.2522417603        2.1286213888        4.5716303270
 H        -1.3960991475        3.3280763075        3.7756149486
 H         0.7685864752        3.4113942140        3.5988231993
 H         2.0632498171        2.6810904980        4.5639665645
 H         0.1852138559        1.7758577855        5.5864103046
 H         0.8159814968        0.2839454061        5.6043711792
 H        -1.0424293277        0.4717476878        5.4637045957
 H         0.9898584489       -1.1155566847        3.8359067694
 H        -0.8345139246       -1.2079766851        3.4621538854
 H         0.4695172718       -0.9950912832        2.2589249078
 H         3.3169754587        4.1699335555        2.6523574666
 H         3.3810999525        2.4147418688        2.5612413060
 H         5.2492262280        2.2797428219       -1.7436232235
 H         5.3602879074        1.6259476426       -0.3161671338
 H         1.9303741166        5.0516812466       -1.1376874744
 H         1.3107923412        3.4668670907       -1.5659413225
 H         2.9385388382        3.9012788009       -2.2740074851
 H         4.8250703709        4.4805779029       -0.6349206753
 H         4.0649082016        5.0055297181        0.7986469705
 H         4.8670219971        3.5073137008        0.7031567018
 H         4.5180248549        0.2254664459       -2.9840384936
 H         4.2446016703       -0.5252352411       -1.3723126415
 H         8.9934776777        0.0762655764       -3.0941761991
 H         9.6431485218       -1.6241325062       -3.0530719860
 H         8.2019764794       -1.6578825507       -1.1577310124
 H         8.4833241241       -3.1442477587       -2.0648576865
 H         7.1099530404       -3.0676136656       -1.0326057690
 H         5.4660168854       -2.4641655002       -4.2619646237
 H         5.9355226800       -3.7028493349       -2.9648899526
 H         4.8485265424       -2.4423830334       -2.6537944440
 H        10.8274356712       -1.1602949343       -5.2117667344
 H         9.3510627954       -1.0098427196       -5.8662509221
 H        13.7880262142        2.7388593065       -4.9286730228
 H        12.3058286763        2.8482060849       -4.0541177005
 H        13.5517054882        1.7354637214       -3.4459958548
 H        10.5055727037        0.4033820593       -7.9351538987
 H        11.5169839023       -0.7769902734       -7.1413800613
 H        12.1792062780        0.5284677642       -8.3247076919
 H        12.4034760485        2.8848702691       -7.0702822614
 H        10.7620537153        2.8291627097       -7.4472447643
 H        11.1899123410        3.2744098648       -5.7966724145
 Na        0.3666786322        0.6530010695        0.3629528726
