155

 C       -12.7452462133       -5.5284295125        1.7245397820
 C       -12.1403586660       -4.5164331807        2.6607189875
 C       -10.8215675161       -4.8259944447        3.6458002508
 C        -9.5198992929       -3.9979667017        3.2529855721
 C        -9.6452122574       -3.3203483031        1.8879713396
 C       -11.2737664322       -4.4685474792        5.1218971214
 C       -10.4047530906       -6.3324671731        3.6314063502
 O       -12.5554036314       -3.3728546264        2.6673529102
 O        -8.5826441322       -3.7538088092        3.9811644745
 C        -8.3278446422       -2.5525846390        1.6714566795
 C        -6.9800547219       -3.3468195154        2.1005499961
 C        -5.8072088306       -2.3802834252        2.5997126753
 C        -5.2756666396       -1.7044346699        1.3104838331
 C        -3.8049633954       -1.4228408463        1.0448338992
 O        -6.8568881902       -4.4896431909        1.9728983320
 O        -6.0226464578       -1.3253818259        0.4401503297
 C        -6.1935015110       -1.1583107601        3.4731411789
 C        -4.6839339634       -3.3676045338        3.1491792952
 C        -3.3246342116       -1.8907922803       -0.3862561668
 C        -2.1728485392       -1.0797920570       -0.8533549492
 C        -2.0484070041       -0.2913668240       -2.2515421006
 C        -2.2205122041        1.2305692039       -1.9687003450
 C        -3.6135129285        1.8329820850       -2.3283808155
 C        -0.5836516879       -0.4419439494       -2.7584649234
 C        -3.0804440795       -0.9073956864       -3.2813953137
 O        -1.2220508535       -0.9210268461       -0.1043037579
 O        -1.3667166115        1.8857068165       -1.3808746570
 C        -3.8205617633        3.0873252083       -1.5963606245
 C        -4.0434421331        2.8437518831       -0.0420677783
 C        -4.1906765339        4.0853748088        0.8588279131
 C        -3.1481423884        3.8403195186        1.9998644061
 C        -3.5237724742        2.7403622841        3.0883085717
 O        -4.1361380379        1.7230336042        0.4014415943
 O        -2.0689105200        4.4381146226        2.0368446902
 C        -3.9260762456        5.5151715556        0.1772106809
 C        -5.5718039691        4.1814603633        1.4911605334
 C        -2.3512143295        2.1996456013        3.8733375998
 C        -1.2856549586        1.3498926302        3.1563512802
 C        -0.1092624663        0.6557355621        4.0122743907
 C         1.1939853100        0.9419903896        3.2433643009
 C         2.1971443053        2.1565471829        3.7046496918
 C         0.1014127348        1.2786641138        5.4267389962
 C        -0.5492240121       -0.8223509905        3.9708640148
 O        -1.3292203727        1.3658534728        1.9139799027
 O         1.6197432345        0.1407694324        2.3700243998
 C         3.1019613494        2.6717863809        2.5807067827
 C         2.4075549243        3.2203260520        1.3595161066
 C         3.1504073153        3.2980208692        0.0058970225
 C         3.3933919923        1.7090369974       -0.4073695347
 C         4.8238193230        1.2240217065       -0.5715556985
 O         1.2031835940        3.4697054812        1.4184175714
 O         2.4729552430        0.9402587055       -0.5898796441
 C         2.1061083534        3.9196845034       -1.0523247288
 C         4.4405659808        4.1336576879        0.0108216710
 C         4.7924051567        0.0311080432       -1.5469253019
 C         6.1374981921       -0.7130213061       -1.8000818596
 C         6.2404796428       -1.6732065559       -2.9068696815
 C         7.1223393860       -0.8637926314       -4.0702004012
 C         8.6940325146       -0.7760099312       -3.8737008128
 C         6.9497569529       -2.9576635544       -2.5064835466
 C         4.9112428933       -2.1331295582       -3.5746799187
 O         7.0851280597       -0.3681673819       -1.0983047098
 O         6.4517984071       -0.3759077163       -4.9768194424
 C         9.5857016388       -0.8855829224       -5.1191919773
 C         9.9068473026        0.5529616807       -5.7258573972
 C        11.0807294892        0.6499312735       -6.8171671152
 C        12.4264376449        0.5056408687       -6.0300376389
 C        13.3931747692        1.6023574934       -5.8133259709
 O         9.3366836423        1.4974628497       -5.3111022055
 O        12.6980900635       -0.5345806487       -5.4372099125
 C        11.1332911423       -0.6002892891       -7.7467692526
 C        10.8770184871        1.8351609577       -7.7310440728
 H       -13.1645147646       -6.4266021825        2.1506338216
 H       -13.5143293042       -5.0154600757        1.1428079786
 H       -11.9493924135       -5.8755682086        1.0505871568
 H        -9.9413224926       -4.0470696279        1.1569755716
 H       -10.5525937735       -2.6813395122        1.8137690984
 H       -10.4715498913       -4.4187255761        5.8359203994
 H       -12.0448393311       -5.1878627893        5.4605822078
 H       -11.8025920617       -3.4823524171        5.0930370318
 H       -11.0581786451       -6.9354598181        4.2516083108
 H       -10.4392413729       -6.7775470118        2.6203977034
 H        -9.3772637628       -6.4419217750        3.9639264160
 H        -8.0691890129       -2.2231591371        0.6422636220
 H        -8.3066851430       -1.6418937680        2.3427155820
 H        -3.9387099984       -0.3898243259        0.9969030305
 H        -3.0815394169       -1.6602236793        1.7839505970
 H        -5.3393237228       -0.5347402055        3.6299846767
 H        -6.6497604743       -1.5937170535        4.4232333049
 H        -6.9902961859       -0.5228442726        3.0814540541
 H        -4.8468254164       -4.0339120513        4.0539240644
 H        -4.3343044470       -4.0696525645        2.3642137809
 H        -3.8700084090       -2.7725574185        3.5522183462
 H        -4.1958363095       -1.9612671085       -0.9823954208
 H        -2.8828939799       -2.9184526315       -0.3142651884
 H        -3.6601298680        2.0330930321       -3.4684255400
 H        -4.5148024896        1.1953292170       -2.1048039912
 H         0.2570082680       -0.3402095115       -1.9654224032
 H        -0.3499091612        0.1173489923       -3.6071405731
 H        -0.4393919430       -1.4331166846       -3.2081642214
 H        -2.9308563874       -2.0246909035       -3.2366446155
 H        -4.0664522993       -0.6330585651       -2.8913251545
 H        -2.9659765308       -0.4611845512       -4.3290078125
 H        -2.9556376699        3.7580641446       -1.7225688662
 H        -4.6976976302        3.5342629683       -2.1831623426
 H        -4.2113806327        3.1412190583        3.8589971869
 H        -3.9503773442        1.9342488079        2.5092389218
 H        -2.9368903032        5.5511422129       -0.2140735306
 H        -3.9155710899        6.1517478134        1.0685863191
 H        -4.7462403401        5.6879935770       -0.5237086149
 H        -6.2977864921        4.5545171798        0.8143362800
 H        -5.7233688842        3.1430419825        1.7560260375
 H        -5.6228545804        4.6700961134        2.4953393577
 H        -2.7091600883        1.6132280094        4.6966820683
 H        -1.7623039447        3.0215833643        4.2756774151
 H         1.5453671993        2.9916332529        4.1399216385
 H         2.7491513982        1.7709014662        4.5305160730
 H        -0.1543302221        2.2986788160        5.2906074931
 H         1.0531906125        1.0509636835        5.7740173590
 H        -0.5282295288        0.9295142853        6.2650681755
 H         0.0627857326       -1.4600913131        4.6824004124
 H        -1.6862683187       -0.8667659451        4.2297166475
 H        -0.4535820581       -1.1367808613        2.9360908147
 H         3.5401571901        3.6249257441        2.9315934654
 H         3.8405731242        1.8874700678        2.4284258832
 H         5.6664062805        1.8323360316       -0.8877449927
 H         5.0070363987        0.7060821396        0.4561688717
 H         1.7184081448        4.8236142765       -0.7082369946
 H         1.3600880710        3.1025555601       -1.0741764208
 H         2.6107772498        4.1343040438       -1.9748128315
 H         4.8799497337        4.2253507295       -0.9772260504
 H         4.0444076736        5.1051595195        0.2386718719
 H         5.2225278419        3.9347232460        0.7986712897
 H         4.6315604314        0.4327054417       -2.5956360775
 H         3.8950384871       -0.6791991041       -1.4009508527
 H         8.8637937419        0.1792049157       -3.3086835632
 H         8.9683282630       -1.6385369783       -3.1824088524
 H         7.9636767818       -2.6721089123       -2.0723238456
 H         7.2047044494       -3.6360981037       -3.3133826884
 H         6.4757975813       -3.4467052544       -1.7053725401
 H         4.1938839538       -1.3461919574       -3.8993800095
 H         5.1725995888       -2.6449748817       -4.5470675432
 H         4.3392600854       -2.8581969964       -2.9903024446
 H        10.5568175651       -1.3837292709       -4.9980621284
 H         9.0246657029       -1.3659925870       -5.8955137703
 H        13.6949300108        2.0581432749       -6.7880877102
 H        12.9418907492        2.4388205222       -5.2020783688
 H        14.3176336976        1.2313039069       -5.3994024360
 H        10.1246572835       -0.6489893039       -8.1213272136
 H        11.1327606991       -1.4218269606       -7.0160464894
 H        11.9663008887       -0.6781829564       -8.4774579246
 H        11.6262497277        1.7933255218       -8.5124099015
 H         9.8524765482        1.9329499632       -7.9860903471
 H        11.1577227663        2.7521302056       -7.1468870164
 Na        0.2703914476        1.0407861207        0.2853893105
