155

 C       -12.6820691123       -5.7329969711        1.8183509924
 C       -12.0335003219       -4.5285031865        2.6350837974
 C       -10.7772725619       -4.8380000087        3.4571712676
 C        -9.5868577266       -3.9465897977        3.1758158517
 C        -9.4581484705       -3.2497318716        1.8654192556
 C       -11.1410109669       -4.6718642142        4.9709480523
 C       -10.2294951066       -6.2724251624        3.2351174982
 O       -12.4269728150       -3.3818817666        2.6320308150
 O        -8.6833233594       -3.9931473120        3.9952250064
 C        -8.2223491679       -2.4466961066        1.6530911809
 C        -6.9096888937       -3.1635978191        2.1497684899
 C        -5.6423000935       -2.2713170236        2.6834069726
 C        -5.1449503777       -1.5973078125        1.3075720008
 C        -3.6441699173       -1.6254257320        0.9640819592
 O        -6.8199736082       -4.3942000511        2.2405653717
 O        -5.8873859816       -0.9528201708        0.5750743776
 C        -6.1739110866       -1.2551264201        3.7322886650
 C        -4.5823377104       -3.0997118630        3.4617094571
 C        -3.2787397030       -1.6055261566       -0.5057036371
 C        -1.9509712617       -0.8795115397       -0.8280151053
 C        -1.9624970586       -0.2915236502       -2.2846864232
 C        -2.2471908441        1.2338179454       -1.8573576823
 C        -3.5435376928        1.9173048260       -2.3318815413
 C        -0.5420235981       -0.5067399328       -2.8524802208
 C        -2.9756754948       -0.8115707699       -3.2716165095
 O        -1.0738546326       -0.8187929495        0.0389470913
 O        -1.3364766397        1.7682005576       -1.2583190928
 C        -3.8025837387        3.2758498868       -1.4893658527
 C        -4.0530620684        2.8695269927       -0.0646041660
 C        -4.2854091773        4.0593878263        1.0309639140
 C        -3.2070426921        3.8593019682        2.1831263492
 C        -3.6820503979        2.7723820852        3.1222899793
 O        -3.9750546246        1.6902122875        0.3134377869
 O        -2.1174908759        4.3406510054        2.2676849739
 C        -3.8779121212        5.4474545341        0.3078710555
 C        -5.7260506336        4.0496746477        1.4579798795
 C        -2.5626712338        2.2088461252        4.0485249689
 C        -1.3715402206        1.6294923764        3.2209520182
 C        -0.1933037855        0.8627362115        3.9639099112
 C         1.2672251083        0.9089194400        3.2283162993
 C         2.1726801809        2.0344259142        3.6567610399
 C        -0.1918787266        1.2895355812        5.4979346667
 C        -0.5991187131       -0.6840642769        3.9300845439
 O        -1.4933186980        1.5575288708        2.0370746397
 O         1.5128336013        0.0982172427        2.3916915531
 C         3.2493116204        2.4782862626        2.6524410570
 C         2.5857764659        3.1374838403        1.4674334616
 C         3.1469983584        3.2328505837        0.0040551565
 C         3.4356066103        1.8056714565       -0.4127661443
 C         4.8185477329        1.1651430942       -0.6549058277
 O         1.5019070601        3.6673618803        1.6877950107
 O         2.4074800623        1.0715388053       -0.4534964286
 C         2.0517124549        3.7866319170       -0.9680480077
 C         4.4441785377        4.1401823416       -0.1735460086
 C         4.8628647186        0.1050290848       -1.8557297162
 C         6.0929902073       -0.8431963348       -1.9229572413
 C         6.2799014053       -1.8157571592       -3.1328326274
 C         7.1362984307       -0.8782376941       -4.1824163697
 C         8.5931531824       -0.6278573203       -3.7995183218
 C         7.0396390054       -3.1682996755       -2.7631719675
 C         4.9033536987       -2.2280631442       -3.6546709832
 O         7.0476612043       -0.6756743150       -1.1713935969
 O         6.5934587367       -0.2685103353       -5.0607300386
 C         9.4324622139       -0.7858141724       -5.0763040928
 C         9.8041165650        0.5423868001       -5.8106260410
 C        10.8595306383        0.3787947219       -6.9376768538
 C        12.2003140023        0.2439477026       -6.2025380176
 C        13.1310073913        1.4527300736       -6.2427477205
 O         9.3725073862        1.6444582168       -5.4348969324
 O        12.5022314706       -0.6357525574       -5.4268426141
 C        10.5725437659       -0.9423925180       -7.7264411176
 C        10.9023914995        1.7408228271       -7.8606173988
 H       -13.3265190187       -6.3057184177        2.5102272367
 H       -13.3242795891       -5.4768883707        0.9696197403
 H       -11.9482185282       -6.4799922488        1.5279085143
 H        -9.7194918951       -3.9975288418        1.0499073229
 H       -10.2843205187       -2.5806456866        1.6130723872
 H       -10.1823744728       -4.5870010359        5.5243115565
 H       -11.5578148162       -5.5758873576        5.3856977046
 H       -11.8377861652       -3.9025523171        5.1571485952
 H       -11.0638986258       -6.9280959465        3.1639034004
 H        -9.5914793087       -6.2808424094        2.3119632445
 H        -9.7443536348       -6.5957728058        4.1360810490
 H        -8.1305549607       -2.3194735539        0.5918738312
 H        -8.2490247796       -1.4725735927        2.0562092437
 H        -3.1453596568       -0.7645521036        1.5189374641
 H        -3.2384350393       -2.5854019506        1.4401877663
 H        -5.3435520810       -0.7472527619        4.2723839690
 H        -6.8657574099       -1.6441410700        4.4593575874
 H        -6.6159708650       -0.3833246575        3.2342250782
 H        -5.0935751927       -3.5975714073        4.2732212740
 H        -4.2370871347       -4.0339906533        2.9993267650
 H        -3.8207930823       -2.5336470549        4.0365523467
 H        -4.0668935084       -0.9451638381       -0.9233207826
 H        -3.3857877782       -2.5376574894       -1.0116052704
 H        -3.4716587736        2.0135210455       -3.3782854666
 H        -4.3296394633        1.1951749943       -2.1656189675
 H         0.1620144130        0.1367425566       -2.3702915911
 H        -0.4248867430       -0.2514384434       -3.9567555224
 H        -0.2062064491       -1.5284969174       -2.8409490715
 H        -2.6842002244       -1.8095863485       -3.5595719790
 H        -4.0219539611       -0.7216803229       -2.9583375379
 H        -2.7228590970       -0.2181260154       -4.1419114944
 H        -2.9055585459        3.8694711576       -1.4822491855
 H        -4.6407818698        3.7977611474       -1.9124083066
 H        -4.3769040882        3.2627249398        3.7812486261
 H        -4.1501603180        1.9732990443        2.5146521758
 H        -2.7650277390        5.4570919501        0.2500736789
 H        -4.0952776326        6.2693178865        0.9846009479
 H        -4.4569484610        5.4191736226       -0.6032315960
 H        -6.3559556993        4.1992955973        0.5362523085
 H        -5.9760537395        3.1772098732        2.1025792468
 H        -5.8957553940        4.8937199331        2.1071951317
 H        -2.9717077865        1.2947553281        4.5775477152
 H        -2.1817594279        2.9566805428        4.7858653831
 H         1.5534165923        2.8227778931        3.9213255941
 H         2.6110598252        1.7221414410        4.6540847820
 H         0.0794932476        2.3384273319        5.6359838114
 H         0.3827486033        0.5268424800        6.1453954692
 H        -1.1711499261        1.3819076525        5.8759736068
 H         0.1937208899       -1.3019021830        4.2550484773
 H        -1.3471381768       -0.9291613282        4.6638039719
 H        -0.9159482330       -0.8635244861        2.9171396825
 H         3.9069072292        3.1459118638        3.1877527049
 H         3.7900207974        1.5772152377        2.3676047485
 H         5.4479732143        1.9739995747       -1.0175269240
 H         5.2310495192        0.6093433247        0.1030111091
 H         1.3095322618        4.3452366156       -0.3582025282
 H         1.7427662119        2.9594589888       -1.5293166030
 H         2.5393931790        4.4862335891       -1.6541007381
 H         4.8148302685        3.8735941282       -1.1171627905
 H         4.4264809142        5.2559665859       -0.1009743250
 H         5.0948185135        3.7173625141        0.5132365948
 H         4.6262310219        0.4777962861       -2.8397340158
 H         4.0968883066       -0.6009390514       -1.6815624660
 H         8.7739012046        0.3571128139       -3.3620489613
 H         8.9139111507       -1.3417374444       -3.0825951972
 H         8.0046095061       -3.0805530190       -2.3096780355
 H         7.1616369892       -3.6836340190       -3.6869148759
 H         6.5030367383       -3.8037565589       -2.0443784705
 H         4.1963490398       -1.4008166504       -3.6228884174
 H         4.7938256012       -2.5407735644       -4.6879187141
 H         4.4903907819       -3.0689439329       -3.0913628115
 H        10.4887259063       -1.0310753970       -4.8109551299
 H         8.9449913096       -1.4960191904       -5.7985613700
 H        13.5069947839        1.7647708918       -7.1869988343
 H        12.5838217710        2.2156978568       -5.7738926530
 H        14.0227088172        1.2780628943       -5.6697923519
 H         9.5173446299       -1.0668125666       -7.9496558235
 H        10.9286494467       -1.8207541675       -7.1873189630
 H        11.2227795022       -0.8409000369       -8.5583670780
 H        11.8127646815        1.7647809675       -8.4493688532
 H        10.0165996735        1.6771906877       -8.4748591611
 H        10.8883823028        2.6176869744       -7.3147070183
 Na        0.2102040541        1.1787259204        0.4410930348
