155

 C         5.6037080674       -0.9011411028       10.9865654043
 C         5.9176869768        0.4711717959       10.3750224023
 C         6.7254011614        0.4190217352        9.1139263518
 C         5.9619264389       -0.4504248777        8.0236075361
 C         4.6750973545        0.1013708754        7.2673455373
 C         6.9703045023        1.9232973459        8.6254480294
 C         8.0849575881       -0.2471419075        9.4719869101
 O         5.4130127531        1.4994930565       10.7566799707
 O         6.3750789735       -1.5053040541        7.6356630656
 C         3.9880504351       -1.0112528072        6.5090103716
 C         3.1199078608       -0.4419853404        5.4566349805
 C         2.5190729360       -1.4017025739        4.2760549717
 C         1.6596831688       -2.4733222628        4.8865320666
 C         0.8479342882       -3.4142216232        3.7794852923
 O         3.0609943215        0.7259007736        5.2764487394
 O         1.5916960133       -2.6541496024        6.0760697490
 C         1.7318453123       -0.5149895483        3.2020556121
 C         3.6636584692       -2.0762530709        3.4519693130
 C        -0.6819930877       -3.2439105839        3.8027526632
 C        -1.3676548055       -2.7755962670        2.4718314552
 C        -2.9177919751       -2.6277421110        2.3803339844
 C        -3.2835078738       -0.9919251216        2.6053631645
 C        -3.9354191633       -0.4813800456        3.9195789244
 C        -3.4990229722       -3.0577461041        0.9805691044
 C        -3.6338934406       -3.5231626279        3.4967797650
 O        -0.6490427158       -2.3493115214        1.5470459741
 O        -3.0385772102       -0.2281945257        1.7166341637
 C        -3.7443160063        1.0878367506        4.2258657578
 C        -2.2865979548        1.4255057767        4.2307713109
 C        -1.9514556226        2.9022693292        4.6390141653
 C        -1.2900541438        3.7798405568        3.5032253497
 C         0.2010552059        3.5628181475        3.1311549682
 O        -1.3737480477        0.7309543824        3.8572258719
 O        -1.9406954485        4.5354572169        2.7872697097
 C        -3.0524878480        3.8480062009        5.2378708389
 C        -0.9962278003        2.6423793333        5.8048021704
 C         0.5051855870        3.7490724039        1.6372663840
 C         0.3707780834        2.4795555030        0.8134096275
 C         0.9115871029        2.5145023616       -0.6649301409
 C         0.6758062131        1.0484322068       -1.1628811975
 C         0.2006336572        0.8186390769       -2.5792754329
 C         0.1901107679        3.6355467259       -1.3477823871
 C         2.4216188724        2.7940894618       -0.6358112345
 O        -0.2942203517        1.5867177398        1.2948536048
 O         1.1375545969        0.1625716101       -0.4788585745
 C        -0.7910335787       -0.3543251109       -2.8848362041
 C        -2.3246935432        0.1259479931       -2.4749369136
 C        -3.3043879286        0.2103871367       -3.7348213899
 C        -3.5322366158       -1.3205096506       -4.1776005727
 C        -3.3879616270       -1.5861676488       -5.7104473868
 O        -2.5554072612        0.2624270759       -1.2516552814
 O        -3.9100591333       -2.0648052157       -3.3003703760
 C        -4.6937997425        0.7782546605       -3.3305488317
 C        -2.8103680349        1.0743926892       -4.8263256160
 C        -4.5250379957       -2.3837407488       -6.3635367372
 C        -4.3571410032       -2.4450827334       -7.9471185274
 C        -5.1176990068       -1.5273909328       -8.9289008716
 C        -4.1119324271       -0.3096119585       -8.9864548602
 C        -2.7996131809       -0.6655992733       -9.6844147540
 C        -5.1607256616       -2.0828322147      -10.4296341561
 C        -6.6612562138       -1.2224813553       -8.5715627899
 O        -3.6805004657       -3.3359656941       -8.3430765512
 O        -4.4253254911        0.7964999601       -8.6008923173
 C        -1.5831702761        0.0787652617       -9.0823452508
 C        -0.3131657925        0.2614136147       -9.9886989411
 C         1.1648004517        0.0958006279       -9.2853663464
 C         1.0876893199        0.9582265980       -7.9450184712
 C         1.0094009630        2.5247389311       -8.0366451576
 O        -0.4476925247        0.6877933680      -11.0968548104
 O         0.8583222917        0.4670574480       -6.9000588747
 C         1.4530241711       -1.4510947555       -9.0157805818
 C         2.2311083332        0.6831170511      -10.1800630145
 H         5.9147668499       -1.6509336707       10.2316572252
 H         6.0550447932       -1.1111439729       11.9230400695
 H         4.4715573091       -0.9028869753       11.1013883244
 H         4.0759650589        0.6868006033        8.0654207996
 H         5.1363072891        0.7858134554        6.5910114067
 H         7.5835927839        2.4968481513        9.2693174396
 H         6.0156074419        2.3744818411        8.3927317339
 H         7.4172400618        1.9094760642        7.5917784007
 H         7.7589430612       -1.3795517073        9.5687572862
 H         8.7629211254       -0.3119889106        8.6859407134
 H         8.4095322691        0.2128557632       10.3661496771
 H         4.8497046096       -1.7051334561        6.0806216339
 H         3.4360686042       -1.5112962702        7.3170707201
 H         1.3321838842       -3.3546057940        2.8204446446
 H         0.9730762942       -4.4196462537        4.0632247804
 H         0.9328151493        0.0015756899        3.6945146814
 H         1.2630623408       -1.1966382648        2.4564771006
 H         2.3911624645        0.0700499715        2.6366953804
 H         4.4149933910       -2.5028044237        4.0625081511
 H         3.3378848148       -2.8078831378        2.7763283725
 H         4.1249893742       -1.3662368257        2.8550070367
 H        -0.9309475592       -2.4980705074        4.4993624298
 H        -1.0826233164       -4.1482522463        4.2750638304
 H        -4.9129410636       -0.8169498240        3.9102765980
 H        -3.4414221394       -0.9533781016        4.7679923967
 H        -2.7600680612       -2.9487013318        0.1756399349
 H        -4.3355263797       -2.5230836824        0.6945636003
 H        -3.6862111093       -4.1379865081        1.0863395379
 H        -3.3959006737       -4.5818358127        3.2881515083
 H        -3.2109631325       -3.2757769602        4.4747017168
 H        -4.7176636791       -3.3811231521        3.6052155698
 H        -4.1993513850        1.8150189746        3.5179189382
 H        -4.3335945096        1.3579605122        5.1328763562
 H         0.7889723735        4.3037521406        3.7292046956
 H         0.4487069683        2.5654360736        3.4755562059
 H        -3.8686780759        3.4734705167        5.8592166691
 H        -3.5472292518        4.3930589363        4.4299595232
 H        -2.4431754978        4.6611412143        5.6701666930
 H        -0.2844275864        3.4317094029        6.0279777248
 H        -1.5574941986        2.5010532255        6.7354274982
 H        -0.4377531721        1.7325043406        5.5547785838
 H         1.3998268104        4.4817177276        1.5134059793
 H        -0.3750759598        4.3684348256        1.2781032607
 H        -0.1392639233        1.8028024270       -3.0119621080
 H         1.0981028833        0.7348299231       -3.1670720042
 H         0.2957766574        4.6347101982       -0.8051213950
 H        -0.8451017598        3.3325490611       -1.4740179347
 H         0.6107262400        3.8345943044       -2.3214166568
 H         2.5474754502        3.8229742065       -0.2661398104
 H         2.8400568366        2.0748092614        0.1182774295
 H         2.8435945486        2.6518073915       -1.6064098384
 H        -0.7351715224       -0.3952181454       -3.9894410107
 H        -0.6357789510       -1.3340388869       -2.3605372205
 H        -3.2421537817       -0.6393952681       -6.1935237967
 H        -2.4523956425       -2.1280712460       -5.9664156570
 H        -5.4860577572        0.3823799113       -4.0153977698
 H        -4.7408289683        1.8004587461       -3.5343740033
 H        -5.0182605495        0.5149177373       -2.2590317137
 H        -2.8366892224        2.0668277374       -4.4623092881
 H        -1.8041207341        0.8134092514       -5.1488177413
 H        -3.6062934980        1.0878499478       -5.6202763347
 H        -5.5182914347       -1.9852012495       -6.1501466994
 H        -4.5602225663       -3.3280193716       -5.8949783428
 H        -2.6815321832       -1.7220940799       -9.7166680786
 H        -2.8814237489       -0.4331282073      -10.7878887652
 H        -5.8479777486       -2.9399997474      -10.4557758397
 H        -4.1553256606       -2.4513500118      -10.7365694943
 H        -5.5464863806       -1.3750122218      -11.1506984455
 H        -7.1368803940       -2.1596685281       -8.3916784647
 H        -6.7224781526       -0.4286331571       -7.7557756973
 H        -7.1558882047       -0.7250834558       -9.3921439865
 H        -1.9792028355        1.0924366269       -8.7705404261
 H        -1.3905270543       -0.4294297869       -8.0979053537
 H         1.9503018436        3.0794748831       -7.7409081878
 H         0.7618814683        2.7807533576       -9.0651163116
 H         0.2240076996        2.9018821272       -7.4178419970
 H         0.9830469668       -1.8527249825       -9.9356530253
 H         0.8994005339       -1.7148054472       -8.1210780735
 H         2.5172593068       -1.7305013338       -8.9480138979
 H         2.1195057151        0.1287158294      -11.1532946141
 H         2.0787317465        1.7809236719      -10.3167838047
 H         3.2209094444        0.3273590040       -9.7292510595
 Na       -1.2993491525       -0.4077708872        0.4270566547
