155

 C       -12.9988687329       -4.8645163473        2.4844029183
 C       -11.5965795250       -5.1909316789        2.0325064553
 C       -10.4261629737       -5.8595654762        2.9175311440
 C        -9.6310341861       -4.6058995503        3.4796788424
 C        -8.3832008523       -4.1153351486        2.7816999438
 C       -10.9608854065       -6.7579798377        4.0565257965
 C        -9.5506073725       -6.8091088743        2.0311600175
 O       -11.3825735584       -5.0783185804        0.8529354384
 O       -10.2120567429       -3.8334435253        4.1978582394
 C        -7.4192413233       -3.0317081995        3.4560352610
 C        -6.0139432690       -3.2949726716        2.8213796473
 C        -4.8484066187       -2.2390448889        3.1496868991
 C        -4.6803164157       -1.2721366965        1.9619594376
 C        -3.5240005526       -1.4475737263        0.8703631930
 O        -5.7582908645       -3.9600522140        1.8857311273
 O        -5.3371569239       -0.3044531792        1.9125014165
 C        -4.9822154608       -1.5003611508        4.4735447463
 C        -3.4953095015       -3.0333971297        3.3661721058
 C        -3.6912341923       -0.5781803234       -0.3297268473
 C        -2.2911073789        0.0973556021       -0.7177115960
 C        -2.2120886361        1.1468696343       -2.0220313982
 C        -1.4170104541        2.3808786295       -1.4657369311
 C        -2.0039075132        3.7443368479       -1.8365678654
 C        -1.1819740639        0.3873115482       -2.9397197904
 C        -3.4694813213        1.4904960428       -2.7867477822
 O        -1.2799280144       -0.1192819460       -0.1259766643
 O        -0.4582253116        2.3489530553       -0.7406732370
 C        -2.4322783494        4.5061353069       -0.6011066941
 C        -3.4942700877        3.6331399281        0.1738981988
 C        -4.4611304980        4.2557547551        1.1551078268
 C        -3.5978590814        4.2619182591        2.4060059907
 C        -3.6431389674        3.0765469490        3.3432934912
 O        -3.5585611699        2.4321650849       -0.1224226583
 O        -2.7821417628        5.1470064243        2.4473896454
 C        -4.9065905513        5.7290697046        0.8443007618
 C        -5.8099368897        3.5167447792        1.1926236009
 C        -2.2437025118        3.1393568411        4.1100796291
 C        -1.1329089659        2.3002887103        3.4841369394
 C        -0.3037009255        1.3550284619        4.5344116190
 C         1.0534414045        1.0384903031        3.7825375656
 C         2.2742948403        1.9819934576        4.0886992437
 C        -0.1744696238        2.1915544369        5.8329288290
 C        -0.9766942400        0.0608239253        4.8095378133
 O        -0.9489502357        2.2870168003        2.3302721159
 O         1.2135291303       -0.0319505194        3.2400405117
 C         3.4343927741        1.8474413926        3.1044569082
 C         3.3073886568        2.6770131787        1.8047579434
 C         4.2826135261        2.6224202391        0.5828156384
 C         3.8798368316        1.3465593339       -0.2784090854
 C         4.7524703632        1.1067989903       -1.5087196467
 O         2.3553556697        3.4585702738        1.5894502634
 O         2.9249963819        0.6629212311        0.0403921584
 C         4.0143163583        3.8221293445       -0.3186796268
 C         5.7765479436        2.3832402658        0.9652314305
 C         4.3277591889       -0.1221690593       -2.2997948076
 C         5.4939051604       -1.1005829238       -2.4168978798
 C         5.7592745573       -1.7654322117       -3.7957382417
 C         6.5423514396       -0.5474621746       -4.6493471585
 C         7.8509158536        0.0644833017       -4.1290758383
 C         6.7229553877       -2.9382754690       -3.6601675526
 C         4.5322828925       -2.2257605218       -4.4658546154
 O         6.2695176983       -1.1989465327       -1.4944872508
 O         6.0639379428       -0.2045477768       -5.6762613658
 C         9.0325455455       -0.3395614640       -5.0028579491
 C         8.8289540539        0.1164302168       -6.4007140213
 C         9.1645253479       -0.8807828484       -7.6845323339
 C        10.7106284982       -1.1163225914       -7.6328264889
 C        11.7619261474       -0.3415425159       -8.4414546985
 O         8.3268634760        1.1604273722       -6.6502857253
 O        11.1567555048       -2.0607104413       -7.0469352349
 C         8.3116528661       -2.0709107218       -7.4843683475
 C         8.8671932061       -0.0114567970       -8.9718236706
 H       -13.0999990751       -4.2188176358        3.3462133457
 H       -13.5977727384       -4.3768469607        1.7187777685
 H       -13.4617616470       -5.8070222988        2.7473161619
 H        -7.7657750166       -4.8939753594        2.2903693156
 H        -8.8466750767       -3.4918272281        1.9530765030
 H       -10.5631836029       -7.8069167685        4.0032359382
 H       -12.0487337714       -6.8874972301        4.0949332312
 H       -10.7438002308       -6.3309670695        5.0124727337
 H       -10.0807543730       -7.7392218008        1.9434992958
 H        -9.3830782979       -6.2990584278        1.0173068653
 H        -8.6355408432       -6.9814862187        2.6224624835
 H        -7.6477088202       -1.9713608062        3.3247688274
 H        -7.4180056857       -3.3763982464        4.5215638145
 H        -2.5467806612       -1.2243610388        1.3250358871
 H        -3.5063281411       -2.4631741521        0.5909423102
 H        -4.0811493484       -0.9212794330        4.6479251959
 H        -5.0359873881       -2.1759491047        5.3539807596
 H        -5.8394049240       -0.9482017276        4.7186045186
 H        -3.5992050540       -3.4563987644        4.3801481463
 H        -3.4374636407       -3.9411523494        2.7408790232
 H        -2.7090860123       -2.2867678966        3.2827253740
 H        -4.3727858048        0.2427034416       -0.0553133973
 H        -4.1857620141       -1.1172002433       -1.0803642934
 H        -1.2475004057        4.3177289238       -2.4035090982
 H        -2.8885688521        3.6299623608       -2.5412454706
 H        -0.1567496625        0.3904787287       -2.4194586889
 H        -1.0153675863        0.9404389064       -3.9062027006
 H        -1.3854606552       -0.6195245847       -3.1863778292
 H        -3.9965848570        0.5876991407       -3.0342767007
 H        -4.1968377788        2.1294952062       -2.3511105749
 H        -3.1406770470        1.7020284010       -3.7732734018
 H        -1.6104664802        4.8240106837        0.0744757602
 H        -2.8805578657        5.4114290487       -0.8673794283
 H        -4.5019415785        3.1744579689        4.0306565222
 H        -3.9088148201        2.1361594998        2.9148781650
 H        -4.0552612793        6.3627488782        1.1020928108
 H        -5.7567295160        6.1953290833        1.2804299314
 H        -5.0462588506        5.7533462997       -0.2031629061
 H        -6.2051745944        3.4720366623        0.1775429601
 H        -5.7532260292        2.4970033894        1.5522068215
 H        -6.4986996908        3.9117184575        1.8489892972
 H        -2.4538325931        2.9686665022        5.1598046272
 H        -1.9103092613        4.1467894313        4.0891540540
 H         1.9368048785        3.0440773550        4.0936065402
 H         2.6623003755        1.7801343081        5.0763930753
 H         0.3039392133        3.1390704914        5.7222345502
 H         0.5099305083        1.5955903567        6.4936761333
 H        -1.0539259749        2.3013789846        6.3543805309
 H        -0.4256102447       -0.7128563497        5.3428858470
 H        -1.8276002039        0.1612494655        5.5623453134
 H        -1.3470896800       -0.3750066044        3.8484923895
 H         4.4193015967        2.0349254566        3.5405578918
 H         3.4751045384        0.7850055442        2.7781180542
 H         4.7822733702        2.0969550803       -2.1032155627
 H         5.8219609485        1.0461143356       -1.1551040719
 H         3.9508146508        4.7892346747        0.2461464415
 H         3.1779024572        3.6170953404       -0.9986438392
 H         4.8849086450        3.9613605969       -1.0502270392
 H         6.4615781281        2.5699678207        0.1785370640
 H         6.1911569490        2.9516217515        1.8529945682
 H         5.8853207277        1.2997837845        1.2591545799
 H         4.1508519480        0.1527641545       -3.4137401113
 H         3.3280591285       -0.4808958065       -1.8088341541
 H         7.8744894018        1.1663268361       -4.1939321312
 H         7.9621829798       -0.2788852832       -3.0628771337
 H         7.6345047516       -2.6012818030       -3.0790281524
 H         6.8980156186       -3.2227050750       -4.6885572309
 H         6.2322977707       -3.7656299527       -3.0982526116
 H         3.6911109833       -1.5314424465       -4.4336240543
 H         4.7066672116       -2.3486432602       -5.5251929418
 H         4.2205437792       -3.2400624050       -4.2354899972
 H         9.9685473580        0.0162290464       -4.5763204516
 H         9.1528021734       -1.4377056886       -5.0487245417
 H        11.4791811681       -0.0983893494       -9.4780706202
 H        11.9443587414        0.6832574141       -8.0492280994
 H        12.6993143120       -0.9230841080       -8.4087590246
 H         7.2528229522       -1.8506397388       -7.3266783891
 H         8.5819532305       -2.5551797573       -6.5360197521
 H         8.4738065365       -2.7780262634       -8.2648523391
 H         9.1003137795       -0.3512607874      -10.0200922491
 H         7.7734541806        0.1212265406       -8.9874344643
 H         9.4491297526        0.8661088819       -8.8213229323
 Na        0.6000400002        1.0014970388        1.0630612161
