155

 C         5.8084203348       -0.8447258678       11.2815495642
 C         5.9882861890        0.4372123631       10.4070918645
 C         6.8083190232        0.4776152324        9.0371103727
 C         6.0040646813       -0.5241581574        8.0155129734
 C         4.6613144884       -0.0049055788        7.3936475492
 C         6.9888275880        1.9136302840        8.5264776138
 C         8.1441464210       -0.1613509304        9.2249044505
 O         5.4824035540        1.4254618202       10.8708768247
 O         6.3576960333       -1.6824034344        7.9505808079
 C         3.9522134163       -1.0186021945        6.4383310383
 C         3.1861693938       -0.4326986638        5.2494010629
 C         2.6584758496       -1.3553011708        4.1896716362
 C         1.5601328292       -2.4291539087        4.5500374532
 C         0.7636117622       -3.2932615208        3.5556539199
 O         2.8093029766        0.7340193673        5.2695103621
 O         1.2895553255       -2.7112684746        5.7212407826
 C         1.8838313662       -0.4245749224        3.1913042888
 C         3.7732047828       -2.0613556607        3.4598077644
 C        -0.7187889629       -3.0531930939        3.7676006784
 C        -1.3882935422       -2.6838799028        2.4693982625
 C        -2.9133568660       -2.4412108005        2.4980442091
 C        -3.2008957035       -0.8897010126        2.6234386024
 C        -3.8058673228       -0.3558829801        3.9472369107
 C        -3.3908164125       -2.9540711285        1.0795933986
 C        -3.6055417235       -3.1973657454        3.5943211060
 O        -0.7601637990       -2.4170969845        1.4744816334
 O        -3.1464072827       -0.1998973254        1.6211341980
 C        -3.7487497862        1.1292379718        4.0716675415
 C        -2.1977230132        1.4866641710        4.1809720023
 C        -1.8203386563        2.8777681815        4.6973328271
 C        -1.1296947990        3.7685012465        3.5639979742
 C         0.4058725984        3.3984547059        3.3337181125
 O        -1.3161355505        0.8017659297        3.6708676517
 O        -1.7265936336        4.4993381529        2.8573720654
 C        -3.0842103273        3.6396743484        5.2256009049
 C        -0.7598863812        2.8799748768        5.8058918702
 C         0.8085371907        3.5931192769        1.7969597666
 C         0.3851052428        2.4753204061        0.9554191863
 C         0.8369878010        2.3792262629       -0.6121840541
 C         0.7069738158        1.0011516361       -1.2503792296
 C         0.3286119082        0.7982462404       -2.7255966327
 C         0.2386041992        3.5675431268       -1.3643188177
 C         2.4719287731        2.5421838775       -0.5826075640
 O        -0.3316224338        1.6222322934        1.4275383589
 O         1.0086399032       -0.0065458933       -0.6144170809
 C        -0.7116721572       -0.3123233619       -2.9643337758
 C        -2.1657840731        0.0289743103       -2.5779634524
 C        -3.4055872699        0.2306585119       -3.6510157946
 C        -3.8753304380       -1.2839268482       -4.2423480697
 C        -3.5140541296       -1.7273002150       -5.7145927758
 O        -2.4657980180        0.0964637848       -1.4135981405
 O        -4.3471779979       -2.1249936026       -3.5294541571
 C        -4.6411013401        0.8121765754       -2.7347980923
 C        -2.8667012512        1.3117455983       -4.7627183528
 C        -4.6656355211       -2.4521069882       -6.4241678212
 C        -4.4126750372       -2.5724672164       -7.8630824744
 C        -5.1320945835       -1.5846853112       -8.8745271527
 C        -4.1228002526       -0.3803351687       -8.9943071194
 C        -2.7396582142       -0.5755256288       -9.7556748608
 C        -5.4370100038       -2.3846450647      -10.2217900404
 C        -6.4823347459       -0.9199056921       -8.2695541687
 O        -3.7174022778       -3.4807731575       -8.3510345264
 O        -4.3131828380        0.7393317047       -8.5175503808
 C        -1.5747046041        0.1729565197       -9.0407737846
 C        -0.4407566629        0.3456872354      -10.0172140552
 C         0.9393215208        0.1877157596       -9.3091067675
 C         0.8965357580        0.9910860395       -7.9590640457
 C         1.1432904217        2.4881361410       -7.9721557815
 O        -0.5582086895        0.5304755293      -11.2066064493
 O         0.6032526921        0.3777857833       -6.8980551384
 C         1.1641101964       -1.3000614085       -9.0212391950
 C         2.0830464661        0.7656768372      -10.2373548933
 H         5.6327823646       -1.7291823532       10.7408868708
 H         6.8135452673       -0.9426717031       11.7975070905
 H         5.0534629966       -0.6065506317       12.0020305358
 H         4.1779853006        0.1423427906        8.2832716552
 H         4.9035065440        0.9470570753        6.8519651283
 H         7.5715394796        2.4476694840        9.3003584089
 H         6.0437189895        2.4217211758        8.3723623397
 H         7.5596974290        1.9280980885        7.6610031794
 H         8.0339709600       -1.2077953760        9.3544165015
 H         8.6027971621       -0.1227279828        8.2334698766
 H         8.6551031215        0.4294758617        9.9627590572
 H         4.7001735091       -1.6253101679        6.0563240412
 H         3.1817737650       -1.6005286492        7.0214100823
 H         1.0145504837       -3.0713301251        2.4976416551
 H         0.9971065614       -4.4021419617        3.6719690926
 H         1.0014589743        0.0125835154        3.6903203540
 H         1.5897921748       -0.8732467785        2.2700662455
 H         2.6325313837        0.3781897226        2.9019892826
 H         4.3453447939       -2.7935032069        4.0905566005
 H         3.4478858921       -2.7783690994        2.6545485093
 H         4.5017375482       -1.3615061897        2.9328099568
 H        -1.0681245403       -2.2000851561        4.4682799788
 H        -1.1983520029       -3.9132023809        4.2616605091
 H        -4.9280870943       -0.7478738484        3.9871114244
 H        -3.2437069941       -0.7069241319        4.8424001612
 H        -3.1292108243       -2.1216104353        0.4443884352
 H        -4.5262595496       -3.0369975072        1.0974939569
 H        -2.8697757828       -3.8294557718        0.6809976314
 H        -3.3575808344       -4.2785933848        3.6085516689
 H        -3.3937610396       -2.6752486558        4.5677771770
 H        -4.7121094068       -3.1279441972        3.4121242432
 H        -4.1459685469        1.6292749903        3.1861987520
 H        -4.4426139803        1.4613201157        4.8278892497
 H         1.0088605714        4.0323749639        3.9623587817
 H         0.5597038943        2.3354862246        3.6236423318
 H        -3.4884413106        3.1583303032        6.1310850035
 H        -3.8932806953        3.6301291074        4.4563935282
 H        -2.9040922377        4.7073109554        5.4832880955
 H        -0.3747004602        3.9339275371        5.8315613573
 H        -1.0669895887        2.6295128870        6.8219879866
 H         0.0264301650        2.1831213247        5.5274407608
 H         1.8465323210        3.6468287147        1.8178604244
 H         0.4594323627        4.5306217384        1.3476018192
 H         0.1236544523        1.7348198605       -3.2015488301
 H         1.2847341977        0.6446051471       -3.3033314038
 H         0.6103914905        4.4407460407       -0.9683455729
 H        -0.8218177772        3.6029433451       -1.1949120839
 H         0.4520206761        3.5962621641       -2.4254436993
 H         2.7112415628        3.5868375061       -0.4886230042
 H         2.8607078525        1.8938583511        0.1644359912
 H         2.7683252294        2.1746140266       -1.5596034663
 H        -0.6988934410       -0.6044153653       -3.9815551274
 H        -0.5591270689       -1.1373399973       -2.3413946716
 H        -3.3329547761       -0.7814117077       -6.2630227510
 H        -2.5734274542       -2.2593496205       -5.7227024040
 H        -5.6204644948        0.7907798034       -3.2022155128
 H        -4.3540160466        1.8955055177       -2.5896642549
 H        -4.8122179301        0.2684626054       -1.8512009427
 H        -2.2255083481        2.0704145596       -4.3001981298
 H        -2.2535355909        0.6948856275       -5.3390123585
 H        -3.6544056814        1.7428482558       -5.3247581155
 H        -5.5300532237       -1.8319220603       -6.1888794149
 H        -4.9367846009       -3.4572175964       -5.9205047288
 H        -2.4668922431       -1.6628592274       -9.9929088639
 H        -2.6548800331       -0.0672575824      -10.6986432173
 H        -5.7918908013       -3.3797578215      -10.0929718950
 H        -4.5514364029       -2.5171994808      -10.8253956648
 H        -6.1086063892       -1.8255079646      -10.8648617954
 H        -7.2814717757       -1.7110139268       -8.2559392749
 H        -6.2911878099       -0.4815007989       -7.3514639684
 H        -6.9015781162       -0.1595005378       -8.9648285458
 H        -1.9423362249        1.1116013853       -8.6693249126
 H        -1.2628284042       -0.3525459351       -8.1647098443
 H         2.1606410749        2.5975716924       -7.6705923987
 H         0.9837287397        3.0256982994       -8.9108455567
 H         0.5204420253        2.9393703961       -7.1436042656
 H         1.5426307779       -1.8086741519       -9.8894565984
 H         0.2287316036       -1.6638112326       -8.5809367051
 H         1.9062310709       -1.3057799257       -8.2100840156
 H         2.1971605766        0.0792261484      -11.0496378609
 H         1.6486880347        1.6961275089      -10.5451865517
 H         3.0259773219        0.8467768328       -9.7742194550
 Na       -1.0677827791       -0.3338988819        0.3277179752
