155

 C       -10.7594751097       -3.5192843318        1.8683651106
 C       -10.6192224414       -5.0769807528        1.7054539487
 C        -9.9591432139       -5.9309057920        2.7907434048
 C        -8.3210530023       -5.6152543764        2.9066717457
 C        -7.4841346065       -4.9327328831        1.7606386775
 C       -10.5504396003       -5.7005629600        4.1426519390
 C        -9.9725295056       -7.3990538078        2.3282992541
 O       -10.9633929948       -5.6265427369        0.6746604353
 O        -7.7151584152       -6.0204698173        3.8682798962
 C        -7.0893739125       -3.4930764542        1.8933935135
 C        -5.5190284763       -3.3972924668        2.0915626466
 C        -4.9605526433       -2.3350637538        3.0124404297
 C        -4.6134498771       -1.1145410067        2.0831640647
 C        -3.4761832781       -1.2544906497        1.0475244737
 O        -4.8791454265       -4.1084192826        1.3412142575
 O        -5.0729866883       -0.0054625642        2.3139461653
 C        -5.8871590508       -1.9676386353        4.1685533439
 C        -3.6118923444       -2.8793588805        3.6209950895
 C        -3.4844495272        0.0004620558        0.1312332300
 C        -2.0748855273        0.4191949789       -0.2828574810
 C        -1.7606266512        1.1521749539       -1.6254357141
 C        -1.9373025381        2.6951704991       -1.2123458157
 C        -3.0964977006        3.5688633100       -1.7866606513
 C        -0.3137418017        0.8677962593       -2.0925092617
 C        -2.8282068535        0.7703120800       -2.7494552786
 O        -1.1837352915        0.1517018651        0.4953028081
 O        -1.1448375374        3.2249054899       -0.4694728370
 C        -3.3752108772        4.8405117220       -0.9882545534
 C        -3.8896184803        4.4163739276        0.3812757936
 C        -4.1295577643        5.4419171989        1.6111637468
 C        -3.1947424350        4.9546618243        2.7770098346
 C        -3.2464642583        3.5039620099        3.2396541057
 O        -4.0764237898        3.2487899591        0.5920120715
 O        -2.5957611121        5.7876993954        3.4203174764
 C        -3.8408641094        6.9220258833        1.3084316591
 C        -5.5247419482        5.1731928550        2.1196949642
 C        -2.3002943064        3.1896668617        4.3795930751
 C        -1.0200856428        2.4680139270        3.9273422552
 C        -0.2318491792        1.6304432676        5.0351677273
 C         1.2405308699        1.3358141944        4.4161785672
 C         2.2990879005        2.4755773949        4.6179149318
 C        -0.2488451147        2.4374101868        6.3692936718
 C        -0.9484269469        0.3180803685        5.1202151821
 O        -0.5483585621        2.6502683383        2.8346621253
 O         1.5036380939        0.2747608436        3.8612722589
 C         3.5146125873        2.3591168362        3.7372039533
 C         3.2452155732        2.5820802770        2.2310623376
 C         4.3753707339        2.3121017200        1.1309103050
 C         3.7961147081        1.1600708501        0.1779255058
 C         4.6951550610        0.0844847508       -0.4165612741
 O         2.1892491033        2.9270592434        1.8427158879
 O         2.6114561384        1.1511535111       -0.1056210901
 C         4.3601538598        3.6405861599        0.3053287695
 C         5.7039415728        1.8701593063        1.6958323055
 C         4.3790537837       -0.4308081063       -1.8561268536
 C         5.6555021738       -1.1847922817       -2.4669757215
 C         5.4668027714       -1.7842145391       -3.8803015235
 C         5.9031120156       -0.8070109752       -5.0014596313
 C         7.3935978429       -0.3223698864       -5.0021131547
 C         6.3090908432       -3.0953009420       -4.0507566447
 C         3.9783327589       -2.3725912715       -4.1524936638
 O         6.7055488448       -1.2375366551       -1.8930674211
 O         5.2751553309       -0.7580632365       -6.0236898219
 C         8.3529748845       -1.0039579995       -5.9533014625
 C         8.2306407730       -0.4167214465       -7.3319356178
 C         8.1038321584       -1.3700316438       -8.6068978304
 C         9.4425604002       -2.1798872391       -8.6658638575
 C        10.5479849252       -1.7240416931       -9.5765725615
 O         8.2118037536        0.8150647518       -7.4603213405
 O         9.5655107328       -3.3094352922       -8.1610752978
 C         7.0169362353       -2.4125216624       -8.3707461536
 C         7.8796077675       -0.5064154860       -9.8016700454
 H        -9.9650144967       -2.9917262594        2.3831646038
 H       -10.9332252310       -3.0438943770        0.9142584771
 H       -11.6244739720       -3.2540337736        2.4683397310
 H        -6.5003325944       -5.5847217927        1.7396395977
 H        -7.9346643941       -5.1736878102        0.8172949007
 H       -10.3202029876       -6.5581008503        4.8169760976
 H       -11.6471441292       -5.6512608275        4.0651082386
 H       -10.1932727378       -4.7563122637        4.5507790260
 H       -10.9529861534       -7.7172136254        2.0374712165
 H        -9.2779033804       -7.5738274321        1.5497856391
 H        -9.6915256067       -8.0407978177        3.1015010991
 H        -7.4305854540       -2.9058054419        1.0560915682
 H        -7.6157050419       -3.0624703843        2.6960287728
 H        -2.4923888708       -1.1492302854        1.6069433524
 H        -3.5536196595       -2.2291645207        0.4888063809
 H        -5.2742610979       -1.1972045248        4.5585582663
 H        -5.9389225807       -2.7324364000        4.9260046204
 H        -6.9517825075       -1.6368285275        4.0094776865
 H        -4.0064758394       -3.3852277411        4.5429646393
 H        -3.0736851761       -3.5681046363        2.9237163472
 H        -2.9585450024       -2.0573025723        3.9470776815
 H        -3.7891338423        0.9708548457        0.6886223748
 H        -4.1121338525       -0.1327522899       -0.6917669530
 H        -2.9162089121        3.7643498615       -2.9012514146
 H        -3.8937400267        2.8471875134       -1.7724183258
 H         0.2339690016        0.5022071641       -1.2477316635
 H         0.1803641466        1.6049284553       -2.7093193357
 H        -0.3195174487       -0.0403479552       -2.8020996024
 H        -2.6435258005       -0.2277225628       -3.1498158064
 H        -3.7901995725        0.9124304287       -2.2722316596
 H        -2.8520620165        1.4651790144       -3.6369558021
 H        -2.4801507469        5.4256008392       -0.9149986193
 H        -4.2624854366        5.3879348680       -1.4005215029
 H        -4.2653294632        3.3841164931        3.6511586266
 H        -2.9831638131        2.8353229089        2.4236714657
 H        -2.8845699910        7.3223426430        1.3969471541
 H        -4.4556410463        7.5916828707        1.9023813495
 H        -4.1372424203        7.0284647496        0.2875356541
 H        -6.2129351344        5.7426391450        1.5783719335
 H        -5.8626272715        4.1610234774        2.0545822031
 H        -5.7045891161        5.5070884323        3.1612495339
 H        -2.8567684157        2.6102415823        5.1879948842
 H        -2.1579676682        4.1740889244        4.8559482672
 H         2.0531171590        3.5050115449        4.5096916516
 H         2.6572354840        2.4198140719        5.6750703789
 H        -0.3750437238        3.5255434631        6.1902141567
 H         0.5734437497        2.0712871156        6.9128303312
 H        -1.2029475586        2.1746120965        6.9414717236
 H        -0.6555620487       -0.0549382580        6.0794659583
 H        -2.0052445389        0.3446759396        4.9090900186
 H        -0.6914952263       -0.4210884581        4.4042417565
 H         4.2610613108        2.9924490553        4.1302395679
 H         3.8568046550        1.2922671226        3.7278246034
 H         5.7150017059        0.4293052516       -0.4517090079
 H         4.6458561340       -0.6793732303        0.2779849243
 H         4.8764544758        4.4364766119        0.6818048281
 H         3.3148923943        3.9183099516        0.1205273342
 H         4.9172873582        3.5986284109       -0.6039251912
 H         6.3411278860        1.4907715032        0.8666880916
 H         6.3215597445        2.5854402595        2.2281881302
 H         5.4930836060        1.0195922082        2.2719734568
 H         4.3282247890        0.4183622911       -2.4851907023
 H         3.4280410751       -0.8856342761       -1.8305420688
 H         7.3953972629        0.7602538390       -5.2232499231
 H         7.7613721425       -0.3459506117       -4.0128478911
 H         7.3409894237       -2.8145047892       -3.8828140444
 H         6.2708718745       -3.3451924746       -5.1253238206
 H         6.0330371920       -3.8337413379       -3.3357089097
 H         3.2458906800       -1.5561934577       -4.3239485081
 H         4.1215027569       -3.0633991137       -5.0355467877
 H         3.6120090065       -3.0009818909       -3.3648814984
 H         9.4004508568       -0.8715204780       -5.5973216824
 H         8.2617933281       -2.1200941995       -6.0004461736
 H        10.5073610486       -0.6449887844       -9.8448463909
 H        11.5293312670       -2.0520761301       -9.1095962978
 H        10.5484111875       -2.1939409812      -10.5747418697
 H         6.1484588790       -1.8858964540       -7.9897100968
 H         7.3898380790       -3.1346320629       -7.5833056325
 H         6.6047012030       -3.0913506697       -9.1106952071
 H         7.8861372590       -1.0747338820      -10.7486133363
 H         6.9097211111       -0.0156051971       -9.7082386971
 H         8.5835261297        0.3833266768       -9.9784826148
 Na        0.4678036902        1.9215743196        0.6803170937
