155

 C         6.2918312902       -0.7701615908       11.2879249213
 C         6.0976877440        0.4447831848       10.4639584497
 C         6.7751040301        0.3723191871        9.0506104692
 C         5.9096686729       -0.6251570088        8.1471452905
 C         4.6206162091       -0.0148028369        7.4226538258
 C         6.6192392649        1.6929154484        8.4114042782
 C         8.2573733763       -0.1770437947        9.1409058311
 O         5.4867731485        1.4629031947       10.7959227052
 O         6.1567421400       -1.8077432855        8.0582316827
 C         4.0523450828       -1.1328364245        6.4187947795
 C         3.1444557814       -0.4350615221        5.2705721786
 C         2.7144742884       -1.2310070480        4.0435505850
 C         1.6069867150       -2.2711569983        4.5282477272
 C         0.9060579515       -3.1036790703        3.4499057976
 O         2.7398501773        0.6637649327        5.4880449707
 O         1.3839742453       -2.4443296932        5.6704323856
 C         2.1160123319       -0.4130789000        2.9703892442
 C         3.8824530758       -1.9901818304        3.4908388034
 C        -0.6515948076       -3.1155655774        3.6407915940
 C        -1.4583404527       -2.4638796876        2.4331116798
 C        -3.0257736437       -2.3485630766        2.4595308167
 C        -3.3182365694       -0.8021691962        2.5721579065
 C        -3.8796274246       -0.2781790191        3.9073405613
 C        -3.6150590731       -2.8475571722        1.1293994033
 C        -3.6443787611       -3.2251944364        3.5504567389
 O        -0.8805552618       -2.2102946197        1.3972981062
 O        -3.1003294538       -0.1277893399        1.6015322436
 C        -3.6135483495        1.2422726821        3.9797009310
 C        -2.0379227797        1.5554713839        4.2078976290
 C        -1.6693347152        3.0420274124        4.8266164938
 C        -0.8870005664        3.7813672311        3.6007680767
 C         0.5688715829        3.2812284176        3.3135446486
 O        -1.1234819660        0.7952882970        3.9709467233
 O        -1.4888129814        4.4274182428        2.7320994429
 C        -2.8813574617        3.8409500886        5.1326940635
 C        -0.7635645701        2.7966636102        6.0273481246
 C         0.9861056366        3.3508378532        1.8494547213
 C         0.4551021053        2.3537802216        0.8283415447
 C         1.1047801301        2.2670059085       -0.6268934079
 C         0.6891891976        0.8860966107       -1.3954111500
 C         0.1073616539        0.9002746229       -2.8627588305
 C         0.3218396864        3.4788715644       -1.3212632036
 C         2.6074402023        2.5192046153       -0.6309638686
 O        -0.4123063554        1.6009724341        1.2509753411
 O         0.7467302712       -0.1759120044       -0.8276327775
 C        -0.6448470596       -0.3101851765       -3.2565294744
 C        -2.1086182988       -0.2230798344       -2.6643163151
 C        -3.3692887989        0.1877670625       -3.5509242961
 C        -3.9506653116       -1.1597275733       -4.2685689540
 C        -3.6642875121       -1.4897056835       -5.7115714231
 O        -2.2563911325       -0.1073692193       -1.4580453292
 O        -4.7522655301       -1.7803440351       -3.6212053033
 C        -4.5276165947        0.6025573754       -2.6100540313
 C        -2.9264129610        1.2527086006       -4.7032400011
 C        -4.6706094217       -2.5222462623       -6.1783975228
 C        -4.4599681920       -2.6245474385       -7.6991293799
 C        -5.2681756513       -1.6227457102       -8.7687660515
 C        -4.1323722924       -0.4429789538       -9.0569282349
 C        -2.9130921201       -0.6048743379       -9.9210960447
 C        -5.6825169319       -2.3260998252      -10.0374386123
 C        -6.4164792470       -0.8986447063       -8.0859249722
 O        -3.8070138356       -3.4922498527       -8.1587610213
 O        -4.2265516279        0.5151769734       -8.3157332519
 C        -1.8221267661        0.2443728424       -9.2326686779
 C        -0.5222243941        0.3879949521       -9.9861219011
 C         0.8535431614        0.3068605876       -9.2879610264
 C         0.7691425276        1.0093104878       -7.9407280039
 C         1.3214609928        2.4590682067       -7.7998401062
 O        -0.5045328640        0.4143714628      -11.2203818817
 O         0.3181208513        0.4727964162       -6.9536985531
 C         1.1330908389       -1.2056148162       -8.9928185134
 C         1.9467180580        0.7778992621      -10.3263058860
 H         5.4685105647       -1.4680272324       10.9317145120
 H         7.2375307667       -1.2117620843       11.1952198935
 H         6.0081479640       -0.4601964766       12.2722650160
 H         3.7307307142        0.2355370510        8.1512588034
 H         4.8977127849        0.7859441647        6.7793146498
 H         7.1842459949        2.4435083994        8.9847531405
 H         5.5921170790        2.1105931942        8.3897684005
 H         7.1618523041        1.5634220624        7.4094177504
 H         8.3992123327       -1.1693697322        9.5099176717
 H         8.5717920863       -0.1842691192        8.0599942678
 H         8.7777264957        0.6771632616        9.6547895951
 H         4.9428166623       -1.6025518371        5.8791831949
 H         3.2608184531       -1.7849617663        6.8441252784
 H         1.1133386889       -2.9369705470        2.3675650709
 H         1.3454600865       -4.0421125858        3.7372351810
 H         1.0510753553       -0.2272659449        3.2027630437
 H         2.1256327290       -1.0431684397        2.0366878445
 H         2.5882245705        0.5352386680        2.7887124164
 H         4.0540818113       -2.9442183270        4.0084778996
 H         3.8244127102       -2.3779524963        2.4801695933
 H         4.7737182920       -1.3931000527        3.4999558089
 H        -0.9454815501       -2.7429161091        4.5778094132
 H        -1.0435268346       -4.1528011375        3.6598983310
 H        -4.8572136062       -0.5183111442        4.0033088390
 H        -3.2613468990       -0.7696431208        4.6601459660
 H        -3.8590932354       -2.0752784440        0.3307174612
 H        -4.4517338199       -3.4220970103        1.4817614149
 H        -2.9117855508       -3.5288529048        0.6591568355
 H        -3.7888147498       -4.1987361997        3.1433553253
 H        -3.0889643249       -3.2209210653        4.4357766078
 H        -4.6376483503       -2.9208673742        3.6908526531
 H        -4.0882528535        1.7061867131        3.1088126247
 H        -4.2007998009        1.6766999191        4.8338918211
 H         1.2951657435        3.8203532187        3.9441623394
 H         0.5064022601        2.2574482529        3.6039160816
 H        -3.3809020572        3.4408687280        6.0320872431
 H        -3.5427158605        3.9950762446        4.3216701613
 H        -2.5649734568        4.7566566771        5.5606651455
 H        -0.8100055847        3.6219115102        6.7106938611
 H        -1.2108666424        1.9242444164        6.5741313723
 H         0.2538420040        2.3922086047        5.8170843281
 H         2.0684778274        3.0232306912        1.9945656186
 H         0.9893686934        4.3713091728        1.5303414114
 H        -0.3498901847        1.8670637127       -3.0795523554
 H         0.9487958520        1.0515520256       -3.4993044997
 H         0.3084675201        4.4705965143       -0.7394236290
 H        -0.7679138598        3.2919538444       -1.4800106344
 H         0.8427941621        3.6637092483       -2.2732274401
 H         2.7483227657        3.4440817262       -0.0297177609
 H         3.0610458253        1.5999475136       -0.2126671049
 H         2.9327392841        2.6805527742       -1.6868414834
 H        -0.7751790312       -0.3250817466       -4.3922106594
 H        -0.0554931010       -1.2611770542       -3.0009366797
 H        -3.8794936068       -0.5704242710       -6.2571189550
 H        -2.5830457990       -1.6762093486       -5.8906145895
 H        -5.3984882459        1.0834134924       -3.0727242189
 H        -4.2557025851        1.1684889417       -1.7394224940
 H        -5.0499708565       -0.4210474420       -2.4656798082
 H        -2.9337591400        2.1626898107       -4.1039094371
 H        -1.8764043460        1.1014043850       -5.1693882199
 H        -3.7034343849        1.2918939774       -5.5134170830
 H        -5.6169226210       -2.0303058150       -5.8189899607
 H        -4.6355822430       -3.4465357947       -5.7067158863
 H        -2.7182000239       -1.6280392833      -10.0829445333
 H        -3.1073299847       -0.0518062740      -10.8874545566
 H        -6.5053537059       -3.0914775842       -9.9087008710
 H        -4.8731797907       -2.9567612192      -10.4710379521
 H        -5.9169927302       -1.6262044188      -10.8820012711
 H        -7.2870000621       -1.4555613418       -7.7905882106
 H        -5.9585325194       -0.2899349980       -7.2233673258
 H        -6.8171182235       -0.3010071973       -8.8730138789
 H        -2.2165576891        1.2810052226       -9.1504748254
 H        -1.8165157004       -0.1041977428       -8.1928789672
 H         2.3058594415        2.6683519404       -8.2752383106
 H         0.6282878915        3.1270453183       -8.3093756889
 H         1.2942610787        2.7049807884       -6.7898669978
 H         1.7463603254       -1.6240222659       -9.8015612380
 H         0.1727157490       -1.6710540633       -8.8827804720
 H         1.6829283168       -1.2844507297       -8.0859633112
 H         2.1733959366        0.0098214707      -11.0365126989
 H         1.7157619780        1.7261837620      -10.7440707081
 H         2.8554960805        0.8723863728       -9.7382170568
 Na       -1.0603559271       -0.4426580880        0.5213015488
