155

 C        -9.2494943588       -5.8906268611        3.1856276752
 C        -9.0401473231       -5.9025741013        1.6232584377
 C        -7.9665357481       -6.9510060267        1.0897574566
 C        -6.4821296338       -6.5439327038        1.7095673798
 C        -5.5307373570       -5.7303635824        0.9070418703
 C        -8.1701721144       -8.5271415768        1.4951817682
 C        -7.9367727504       -6.8684484383       -0.4302638265
 O        -9.7439879473       -5.2878052382        0.8788934049
 O        -6.3251325613       -6.7951471045        2.9449426393
 C        -5.6307314009       -4.3032581120        1.2800653682
 C        -4.2802311902       -3.7601230932        1.8363893683
 C        -4.2981532664       -2.3563369275        2.4791076523
 C        -4.2639141368       -1.2943990609        1.3083329418
 C        -2.9952667731       -0.5262466403        1.0168329681
 O        -3.2518437001       -4.2696383099        1.4911003403
 O        -5.2437763390       -1.0901012778        0.6160655931
 C        -5.4692032605       -2.1356754937        3.5699669235
 C        -2.8208347727       -2.1547005260        3.1104078152
 C        -3.2839382371        0.5400611998        0.0199222077
 C        -2.0287995006        1.3685933775       -0.1158765453
 C        -1.5952571643        2.1705849740       -1.4499404280
 C        -1.0513113657        3.5971388706       -1.0641947801
 C        -1.9528754368        4.8604407998       -1.2261744231
 C        -0.3752083092        1.3927056314       -1.9418920698
 C        -2.6822035507        2.1971299812       -2.5486969272
 O        -1.2788624644        1.4148176644        0.8377251678
 O        -0.0048100692        3.7547187638       -0.4531308281
 C        -1.8108198898        5.8754747617       -0.1209813291
 C        -2.3379004879        5.4362577448        1.2449792984
 C        -2.2973592880        6.3377287880        2.5388658460
 C        -1.3375089851        5.6128325972        3.6491955351
 C        -2.2232072234        4.7194579989        4.6269260587
 O        -2.7245717265        4.3194483285        1.3857038284
 O        -0.1066959152        5.6807451655        3.6801174419
 C        -1.8075682409        7.8346811496        2.3080042628
 C        -3.8401233281        6.3735271964        2.7992093895
 C        -1.3313183140        3.8453338142        5.4868925719
 C        -0.3823477655        2.9609798937        4.6883599394
 C         0.6141148555        2.0259075694        5.4771465477
 C         2.0805028568        2.1023225976        4.6725451180
 C         2.9532069671        3.3738606316        4.8328214873
 C         0.7458219062        2.6117848252        7.0055771467
 C         0.1969534132        0.5341506265        5.4176760561
 O        -0.4302136838        3.0622791967        3.4526560514
 O         2.4280177293        1.1926728335        3.9817253031
 C         4.0948869765        3.3432077077        3.8420132151
 C         3.5579595555        3.0855190902        2.4377309281
 C         4.5407463807        2.5200927145        1.3675627761
 C         3.7371552674        1.6575518747        0.2932150485
 C         4.5346522073        0.9059171394       -0.7662448438
 O         2.4139739609        3.4852841661        2.2816523149
 O         2.5713772216        1.6573350755        0.1910745871
 C         4.9784704267        3.8526441166        0.6458839093
 C         5.6439203393        1.6473865657        1.9982683337
 C         3.5992998843       -0.1145737918       -1.5962777849
 C         4.4471377283       -1.2269755081       -2.1816176296
 C         3.8496184372       -2.1543026088       -3.2865999966
 C         3.6379247514       -1.1522962258       -4.4988405840
 C         4.5965743393       -1.2341729994       -5.6849318231
 C         4.7624717534       -3.3074407775       -3.5388490021
 C         2.4749607567       -2.6557729796       -2.8979643292
 O         5.6351008692       -1.3597557046       -1.8805907716
 O         2.8165708115       -0.2170198400       -4.3893958213
 C         3.9556609329       -2.0064588839       -6.8857863806
 C         4.8955605330       -2.0674499552       -8.0903716115
 C         4.4152502185       -2.6927625941       -9.4679335363
 C         4.5518734433       -4.1713268882       -9.3839766639
 C         5.9766065210       -4.7642598830       -9.3059126051
 O         6.0732831950       -1.6596637031       -8.0335155548
 O         3.6509324659       -4.9190708387       -9.6364114980
 C         2.9596381943       -2.2335416711       -9.9347320689
 C         5.5773066517       -2.1900158517      -10.5085097608
 H       -10.3215376921       -6.0848494855        3.2985667795
 H        -8.7434209360       -6.6486623305        3.7784934340
 H        -9.1525547192       -4.9229418095        3.6621903776
 H        -4.4205328354       -6.0228123153        1.0196252126
 H        -5.8655881689       -5.7492898223       -0.0597096444
 H        -8.7238829510       -8.5375794382        2.4542618413
 H        -7.1873895993       -8.9284132501        1.4472214751
 H        -8.7738266058       -9.0944670593        0.7757468008
 H        -8.5405070447       -7.6555647907       -0.8858943198
 H        -8.1952885174       -5.8763113320       -0.8990822341
 H        -6.9417964565       -7.0236905334       -0.9975690208
 H        -5.8387491784       -3.7029307602        0.4131381276
 H        -6.5084472314       -4.3062356404        1.9678335315
 H        -2.6753912147       -0.2163876135        2.0164057934
 H        -2.2472637260       -1.1983283371        0.6717524911
 H        -5.4570149260       -1.0902049108        3.8536717131
 H        -5.1610179440       -2.6777910913        4.4303950175
 H        -6.4239516459       -2.3796899504        2.9672066307
 H        -2.5889732848       -3.0025826153        3.7363646987
 H        -1.9125225498       -2.0786528210        2.4778062276
 H        -2.7402647461       -1.2658218067        3.6955323713
 H        -4.1586281053        1.1155879529        0.3518131584
 H        -3.5795349723        0.1558737959       -0.8772347708
 H        -1.7240007745        5.3023820294       -2.1688222018
 H        -3.0541028464        4.6059956436       -1.2923361918
 H         0.3811307027        1.5672901992       -1.1570650581
 H        -0.0780977393        1.8229307691       -2.8446737427
 H        -0.7931741586        0.4450469466       -2.2200341994
 H        -2.9732568203        1.1397571626       -2.8160491595
 H        -3.6318813158        2.5971710703       -2.1886640234
 H        -2.3002678576        2.6830229604       -3.5038889516
 H        -0.7482657389        6.2142405991        0.0749002793
 H        -2.2983903096        6.7903887343       -0.3804017941
 H        -2.8038127405        5.4064200214        5.2427349095
 H        -2.7931126444        4.0014845418        4.0512232281
 H        -0.8151141255        7.8792619137        1.9641919350
 H        -1.9283006004        8.3571229017        3.2625010554
 H        -2.2984420718        8.3563081729        1.5103194832
 H        -4.3605160721        6.7443548638        1.9917156460
 H        -4.2121551845        5.4046547498        3.0515091152
 H        -3.8427849141        7.0807714437        3.6259608666
 H        -1.9868838401        3.2216105250        6.1401132458
 H        -0.8710489199        4.4315450731        6.2498744673
 H         2.2051224351        4.1422567100        4.5990569568
 H         3.3580737017        3.6018518615        5.8552604511
 H         1.3582437453        3.4740411323        7.0092220821
 H         1.0804414738        1.7660174579        7.6647521060
 H        -0.0969538932        3.0143782442        7.3089069195
 H         0.6510755963        0.1128271634        6.3203051239
 H        -0.9050443465        0.4187817046        5.4155524015
 H         0.7369693556        0.1419772013        4.5648485585
 H         4.5529214285        4.3883844330        3.9084507583
 H         4.7944273961        2.6105564337        4.1509221714
 H         5.0112936127        1.7403247078       -1.4248826886
 H         5.4193950018        0.1979972835       -0.4897985246
 H         5.1538923179        4.6564558435        1.2685893157
 H         4.0760970668        4.0307630982        0.0063867751
 H         5.9279372186        3.7505454537        0.0988179174
 H         6.1563651976        1.1029583607        1.3008837790
 H         6.3965834875        2.3202363116        2.5088501889
 H         5.3450466256        0.9321365368        2.7461434710
 H         2.9476230088        0.4391954971       -2.3115090730
 H         3.0652236561       -0.6217657200       -0.8060927819
 H         4.8424080006       -0.2808899345       -6.0511432345
 H         5.5752087954       -1.6965090759       -5.3975495928
 H         5.7459870430       -3.0578038957       -3.5544823593
 H         4.6244187713       -3.6758545049       -4.5732570174
 H         4.7395487783       -4.0637199126       -2.8098122785
 H         1.6262661612       -2.0455062744       -3.2199873535
 H         2.4473684480       -3.7705151032       -3.0775273071
 H         2.4183158774       -2.6341987184       -1.8475499078
 H         3.6040088976       -2.9133743587       -6.4645928293
 H         3.2048044433       -1.3774167486       -7.2510896100
 H         6.8526571976       -4.1795963315       -8.8565611173
 H         5.9592496093       -5.4727509234       -8.4628909096
 H         6.3475794183       -5.2142184657      -10.2333638902
 H         2.7549863039       -1.1219566538       -9.7025343145
 H         2.2257893306       -2.8960860644       -9.5655456948
 H         2.9353311154       -2.2444268661      -11.0674731114
 H         5.6542721626       -2.8517900533      -11.3341982176
 H         5.2932294296       -1.1934519392      -10.6578375508
 H         6.5562901298       -2.3034019595      -10.0285030462
 Na        0.5780132157        2.4386314738        1.3201026334
