155

 C        -9.3696959770       -6.9590126720        3.0481639522
 C        -9.1381614077       -6.5029607457        1.5739695554
 C        -7.9223206720       -7.2375644266        0.7778191381
 C        -6.5343850600       -6.7905688942        1.5716613553
 C        -5.4983370230       -5.8534574966        0.9166387130
 C        -8.0540704710       -8.7769435754        0.9559796044
 C        -7.8990110524       -6.7910843052       -0.7462663868
 O        -9.7338028790       -5.6529798422        0.9839525541
 O        -6.3447929775       -7.2248970397        2.7108597670
 C        -5.5410851634       -4.4099008096        1.4334342081
 C        -4.2719632334       -3.7626656070        1.9972812804
 C        -4.2455289304       -2.2558849323        2.5265498335
 C        -4.1443469928       -1.2597008407        1.2909476454
 C        -2.8481041223       -0.5782852644        0.8420837820
 O        -3.2264973558       -4.2356200556        1.7421090303
 O        -5.0713430886       -1.0354768229        0.5345338079
 C        -5.5789961536       -1.8989831946        3.2883321320
 C        -3.0109710833       -2.0109733855        3.3241722205
 C        -3.1305989235        0.7440254535        0.0386775747
 C        -1.8441721513        1.5572319382       -0.0818911434
 C        -1.4379846283        2.3418130647       -1.4004133584
 C        -1.1206566695        3.8367825966       -1.0057313931
 C        -2.1432050939        4.9567020497       -1.1120273976
 C        -0.0895015267        1.7810253081       -1.9249584618
 C        -2.5226557870        2.3610780936       -2.4977291970
 O        -1.1968411166        1.7775697055        0.9174313885
 O         0.0131942628        4.1356952257       -0.6617567990
 C        -2.1592483627        6.1073410389       -0.0669917841
 C        -2.2170638435        5.4819297580        1.3649525122
 C        -2.1377332511        6.4551976648        2.5663969565
 C        -1.3672512538        5.7028598577        3.8088752174
 C        -2.1054514227        4.5675000878        4.5781462404
 O        -2.2665684837        4.2795053604        1.5153865464
 O        -0.2240620037        5.9717845125        4.0251995502
 C        -1.3461930851        7.6912849952        2.2108015505
 C        -3.5114659488        6.8930821669        3.0237454182
 C        -1.0770134669        3.9615382875        5.6246213647
 C        -0.1831271204        2.9870600078        4.8653644892
 C         0.8655202635        2.1122789330        5.5887916559
 C         2.0991089292        2.1535250634        4.5819104148
 C         3.1221739220        3.3516011150        4.6102625963
 C         1.1977753686        2.5651159901        7.0056440797
 C         0.1908630810        0.6967207794        5.6274486735
 O        -0.3289408345        2.8093901460        3.6187392626
 O         2.1139869629        1.3311339264        3.6741792332
 C         4.3233834260        3.1720639830        3.7186060050
 C         3.9319360352        3.3550361342        2.2677872099
 C         4.7211913759        2.6017291542        1.1679855176
 C         3.7635780036        1.6017596843        0.3440292864
 C         4.6283052606        0.6820601368       -0.5824256044
 O         3.0417404930        4.1853877095        1.9849693184
 O         2.5948998112        1.3733392348        0.5723877449
 C         5.1467969991        3.6813128687        0.0918108533
 C         5.9025219400        1.8585884406        1.8287500112
 C         3.7545380987       -0.3931093292       -1.2858536063
 C         4.5156379694       -1.2665575765       -2.2469220232
 C         3.6703215079       -2.1646746257       -3.3300224187
 C         3.3552187264       -1.2126485263       -4.5500760042
 C         4.2508894330       -1.2149207799       -5.7426957752
 C         4.5356493597       -3.4655011802       -3.6527127391
 C         2.2922118635       -2.6146923704       -2.7357842129
 O         5.7228577843       -1.4547434856       -2.2114864111
 O         2.5172241802       -0.3490168232       -4.4084744546
 C         3.6762873821       -2.0081179347       -6.9294474489
 C         4.5210594518       -2.1112082638       -8.1954193549
 C         4.0422501434       -2.7119652198       -9.5148528232
 C         3.8605740910       -4.2815275662       -9.1529620619
 C         5.1089131328       -5.0338060686       -8.8505665790
 O         5.7508654599       -1.9053890479       -8.0262424585
 O         2.7328820871       -4.7840705833       -9.2098407774
 C         2.6673341915       -2.3169879981       -9.9314722193
 C         5.1514672888       -2.4032861712      -10.5600808062
 H       -10.1277460275       -7.7622815719        3.0313288155
 H        -8.4218108286       -7.3726701199        3.4068347022
 H        -9.7443490475       -6.1941017622        3.7520521081
 H        -4.4391984983       -6.2383582433        1.2031775923
 H        -5.4480280761       -5.8495473280       -0.1427901399
 H        -7.1271792205       -9.1172835615        1.3914480558
 H        -8.2075263172       -9.2303893128       -0.0380627825
 H        -8.8935466784       -9.0422489482        1.5674586687
 H        -8.9148253936       -6.6537007272       -1.1510431803
 H        -7.3521629850       -5.9031283825       -1.0178823797
 H        -7.2769668970       -7.4955071032       -1.3952606007
 H        -6.1323803832       -3.7417078200        0.8220749281
 H        -6.0672233241       -4.6054784500        2.4272302756
 H        -2.1393155825       -0.3977401251        1.7312640723
 H        -2.3478857138       -1.4018765835        0.2869459867
 H        -5.2268405462       -1.0466427562        3.8018780895
 H        -5.8086713527       -2.7114245264        3.9311787523
 H        -6.3460408958       -1.5949380489        2.5629146291
 H        -2.8448141617       -2.5282763558        4.2729636207
 H        -2.2035659467       -2.5542661917        2.7541951611
 H        -2.7471076125       -0.9014319468        3.4307196957
 H        -3.8169648677        1.3725310818        0.6691399240
 H        -3.5389395202        0.6023559513       -0.9218502364
 H        -2.0225655184        5.4536118637       -2.0152848932
 H        -3.1466928642        4.5510080231       -1.2095738509
 H         0.5772175777        1.8462734266       -1.1089436733
 H         0.0552280611        2.5224481060       -2.7177362038
 H        -0.2574402998        0.8078388143       -2.3063967387
 H        -2.5874606199        1.3803365073       -2.9103769854
 H        -3.5140759169        2.6886991811       -2.2195485690
 H        -2.2208732940        3.1027608891       -3.2321081404
 H        -1.4821268349        7.0255909617       -0.2662985165
 H        -3.1490791569        6.5275823236       -0.1625007760
 H        -2.9816933211        5.0445987606        5.1063954439
 H        -2.4329480832        3.7727954326        3.8559487287
 H        -0.4750911833        7.4006846142        1.6412636465
 H        -1.0341822569        8.4456086798        2.9927448007
 H        -1.9035286001        8.3454917961        1.5042266032
 H        -3.8516042676        7.6523677610        2.3709901351
 H        -4.2238793823        6.0871143888        3.0237483143
 H        -3.3315474140        7.2429159804        4.0588674019
 H        -1.6184858551        3.5440120414        6.5217770880
 H        -0.5718666427        4.8410058740        6.0561797435
 H         2.5406632187        4.2309415013        4.2880753810
 H         3.4156842726        3.4247241483        5.6689175411
 H         1.1379696493        3.6550432602        7.0116614956
 H         2.1829750377        2.1638141504        7.4145410491
 H         0.4565838661        2.1669928078        7.6476363467
 H         1.1175504292        0.0531842360        5.7369638968
 H        -0.5535848281        0.5947652706        6.3990399309
 H        -0.3543782684        0.5721724056        4.6878257804
 H         5.1646475111        3.9231201914        4.0148296368
 H         4.7470773406        2.1982926338        3.8068191729
 H         5.1017167554        1.2861756071       -1.3891168441
 H         5.4540737409        0.1420311415       -0.0729244101
 H         6.1041115209        4.0911765569        0.2811518334
 H         4.3700745502        4.4342256980        0.0870673848
 H         5.2068967450        3.1561588110       -0.8566522531
 H         6.4658778283        1.2928597866        1.1606863646
 H         6.5559893580        2.5509207338        2.3669211228
 H         5.6096752403        1.0989134516        2.6307178604
 H         2.8164407750        0.0561127313       -1.7090467196
 H         3.3627065860       -1.0937529125       -0.5503755694
 H         4.5770049816       -0.2677049702       -6.0842035836
 H         5.2329751375       -1.7373719217       -5.5098204577
 H         5.5476128427       -3.3792908848       -4.0377724662
 H         3.9892187642       -3.9585654115       -4.4984992085
 H         4.5389524731       -4.2125325581       -2.8465736526
 H         1.7123795584       -1.8207398951       -2.2583353593
 H         1.5436135539       -2.9453491430       -3.5092664924
 H         2.5522160513       -3.4080932394       -1.9964140090
 H         3.5104254230       -3.0488115880       -6.6309576964
 H         2.7435309112       -1.5472954687       -7.1798018434
 H         5.4132568412       -4.8421685159       -7.8152202311
 H         5.0132443581       -6.1099188476       -8.5920507722
 H         5.9208755381       -4.9017380887       -9.5688683108
 H         2.6052837138       -1.2429864874      -10.2555655013
 H         2.0430683910       -2.5306126892       -9.1491053464
 H         2.2449839055       -2.9098829233      -10.7655628860
 H         4.7853931024       -2.6210498063      -11.5479576096
 H         5.2924890656       -1.2752018211      -10.5448616496
 H         6.0843556143       -2.8388399082      -10.2253807384
 Na        0.8971505313        2.8961584736        1.4920319048
