155

 C        -9.3645939158       -7.8691446535        2.5503225071
 C        -8.9694889894       -6.9227039825        1.4681910423
 C        -7.7136785096       -7.3346829440        0.5393655412
 C        -6.4900623447       -6.8809792981        1.4621194252
 C        -5.5108767308       -5.8048513673        1.0534867834
 C        -7.5514814912       -8.9358424859        0.3420281108
 C        -7.7675134364       -6.6121191800       -0.8739609637
 O        -9.4582714751       -5.8066112364        1.2678376410
 O        -6.4087120541       -7.5096020709        2.4818104175
 C        -5.6112084844       -4.6480608919        2.0067028767
 C        -4.4442084408       -3.6327456938        1.8747010326
 C        -4.3984506707       -2.2170645064        2.3934389023
 C        -4.0813823382       -1.2707520457        1.1808972802
 C        -2.8385380121       -0.4335578662        1.1518229460
 O        -3.3891524106       -4.1832220526        1.6168251056
 O        -4.9997743556       -1.1065495192        0.4197391412
 C        -5.6926457289       -1.7293651462        2.9769441604
 C        -3.1955107531       -2.0697601222        3.4900982625
 C        -2.8778027815        0.5410721597       -0.0742184444
 C        -1.5318143116        1.3291194657       -0.0895924599
 C        -1.2791350260        2.4899159632       -1.1672479139
 C        -1.0971910566        3.9099995360       -0.5323318458
 C        -2.2357601626        4.9369730821       -0.7750535511
 C         0.2178953776        2.2394944371       -1.7976571934
 C        -2.2553362424        2.5984273869       -2.3495124373
 O        -0.7435440026        1.2706679797        0.8160627642
 O        -0.1609833496        4.1767014582        0.1945717190
 C        -2.0182031323        6.1593916398        0.0982597953
 C        -2.1106931229        5.6109764435        1.5763918942
 C        -1.8062754685        6.6345431296        2.6950255792
 C        -1.2084822425        5.8939132106        3.9895963497
 C        -2.0503727182        4.8273612583        4.6692640601
 O        -2.3412220703        4.4265826788        1.7537684083
 O        -0.1861884453        6.2748946686        4.4522881574
 C        -0.8969312801        7.7968154859        2.1960607550
 C        -3.2492787234        7.2158982655        3.0059893665
 C        -1.2530745882        3.7164585658        5.5266330761
 C        -0.1343124712        3.1139580343        4.6204110460
 C         1.0874467625        2.3243198576        5.3453318774
 C         2.2598955647        2.3471135297        4.3137336701
 C         3.4552760441        3.2625657457        4.4677872561
 C         1.2979201093        2.8300476827        6.7467765402
 C         0.4960173576        0.8751603849        5.4758790440
 O        -0.2425655263        3.2350017633        3.4170782644
 O         2.0877298733        1.6670396179        3.3116031691
 C         4.6496112824        2.9399463538        3.5172147468
 C         4.3195556682        3.3348310232        2.0658529126
 C         4.9984675143        2.6741369276        0.8304631382
 C         4.0429164667        1.4334301643        0.4094881919
 C         4.6088613319        0.0404567632       -0.0141425590
 O         3.4155765243        4.1397379890        1.7912210355
 O         2.8352978672        1.6297338018        0.4031221315
 C         5.0326705079        3.6501628007       -0.3565734715
 C         6.4111957308        2.2043393001        1.2110883553
 C         3.5918936705       -0.6015826552       -1.0342368537
 C         4.3105215207       -1.3798678573       -2.2039477225
 C         3.4247752927       -2.1931902085       -3.1939677085
 C         2.9774528253       -1.2235625709       -4.5709429058
 C         3.9350728723       -1.2106162283       -5.7967814998
 C         4.2430997189       -3.3332746340       -3.6500965853
 C         2.0547321047       -2.7852513170       -2.7270733915
 O         5.4775642335       -1.2446756764       -2.4726113496
 O         2.0507824969       -0.5313918093       -4.4779952834
 C         3.3577926593       -1.7861648856       -7.0460585998
 C         4.3409575832       -2.2036772484       -8.1003634651
 C         3.6246452696       -2.9013717876       -9.3074575929
 C         3.1859858519       -4.3793722262       -8.9037300399
 C         4.2346625195       -5.3595488999       -8.6670158359
 O         5.5041648794       -1.9107551786       -8.0288826549
 O         2.0070695384       -4.5712263032       -8.6726543547
 C         2.2768096633       -2.1434500513       -9.6240572098
 C         4.5170502680       -2.9974071466      -10.4945799220
 H        -9.1389203891       -8.8596281625        2.1881328166
 H        -8.7925867516       -7.6475401081        3.4287131235
 H       -10.4209549638       -7.8743796218        2.8324249670
 H        -4.4429062792       -6.0680468909        0.8965227049
 H        -5.7989233011       -5.3945214880        0.0515994547
 H        -7.1015864819       -9.1182908878       -0.6084222346
 H        -8.5820616834       -9.3992662037        0.2741892521
 H        -7.1054105182       -9.3822437600        1.1831021888
 H        -8.0421644319       -7.1820193639       -1.7726431074
 H        -8.4547092068       -5.8632709582       -0.9158718055
 H        -6.8220619524       -6.1155236808       -1.0817259986
 H        -6.5690354768       -4.2261260281        1.8224591090
 H        -5.5907368137       -5.0416855821        3.0530713036
 H        -2.8475031585        0.1688368990        2.1488034305
 H        -1.8777354158       -1.0606246646        1.1442550659
 H        -5.4032707674       -0.8310991066        3.4648210527
 H        -6.0673829818       -2.5385446491        3.5549484824
 H        -6.3114758997       -1.5725893549        2.1648147670
 H        -3.5039741191       -2.5056301566        4.4379100584
 H        -2.2682894624       -2.5201953547        3.1348052284
 H        -3.0595623212       -1.0569609023        3.9514052054
 H        -3.6040566419        1.3797698923       -0.0686210139
 H        -2.8536467200       -0.0548062724       -0.9705469523
 H        -2.2406912353        5.1897432143       -1.7818589847
 H        -3.2320292294        4.5939774322       -0.6044852052
 H         0.7501051574        1.9025258188       -1.0062540974
 H         0.4009066846        3.2470386701       -2.2506033903
 H         0.1352381153        1.4275388989       -2.4683575605
 H        -2.1383116225        1.7479891327       -2.9507632333
 H        -3.2791184961        2.6805855391       -1.9937184398
 H        -2.1281989765        3.4564572791       -2.9835314554
 H        -1.0013531333        6.7095546194       -0.0870092135
 H        -2.7575748814        6.9299550233       -0.0681974506
 H        -2.7424340108        5.4319022586        5.3306369972
 H        -2.7596884066        4.3038721480        3.9828619937
 H         0.1728135824        7.5575712980        2.1780987673
 H        -0.8029337414        8.6648427191        2.8566446238
 H        -1.3030808855        8.2887183804        1.2800609628
 H        -3.6564561574        7.7373261472        2.1065840623
 H        -3.9098245668        6.4110546966        3.3910887481
 H        -3.0915349450        7.8968637446        3.8676812287
 H        -1.9748686780        2.9275806576        5.8351322810
 H        -0.9374956913        4.3009988920        6.4126483339
 H         2.9937532588        4.2266878033        4.2520844238
 H         3.7180970424        3.2020291226        5.5107858602
 H         1.7759994169        3.7986213098        6.8404596135
 H         1.9259931296        2.2432951715        7.4143583352
 H         0.2640043699        2.6962180193        7.1889871137
 H         1.2565826919        0.3518628318        6.1484619706
 H        -0.4575276465        0.8284648103        5.9104623581
 H         0.4573351441        0.4667893216        4.4644839377
 H         5.6355503611        3.4406561378        3.8402203342
 H         4.9071921437        1.8980777956        3.5067559912
 H         5.5041690675        0.1224224616       -0.5535428360
 H         4.7944498953       -0.5996041826        0.8060038491
 H         5.2106475542        4.6516511022        0.0781464515
 H         4.0587310805        3.6453337020       -0.7870130205
 H         5.7152673721        3.2854297702       -1.1118183027
 H         7.1291886275        1.9359163649        0.4387706815
 H         6.9391223635        2.9542095939        1.7411229557
 H         6.3263066451        1.3015171074        1.9416815380
 H         2.8561150118        0.1255265369       -1.4129197722
 H         2.8252960419       -1.1368624085       -0.5885301468
 H         4.1386556987       -0.1506979658       -5.9162436865
 H         4.9014671705       -1.7867118541       -5.5898390762
 H         5.3036687473       -2.9698990883       -3.7609134245
 H         3.9386592539       -3.8014638310       -4.5849343324
 H         4.1396245458       -4.2268963325       -2.9901671577
 H         1.3540019226       -1.9993634858       -2.4896179508
 H         1.5616889063       -3.4838173930       -3.3910190884
 H         2.2800568204       -3.3281514563       -1.7128862840
 H         2.5625951926       -2.5516755412       -6.8698096637
 H         2.7206457213       -0.9949087728       -7.4672022084
 H         4.4421076812       -5.1805982197       -7.6224507594
 H         4.0957180224       -6.4341843331       -8.7247728435
 H         5.1815895847       -5.2515946308       -9.1628970291
 H         2.3663243975       -1.0822793586       -9.5453635181
 H         1.5212108198       -2.3987792496       -8.8925726632
 H         1.8976288548       -2.4495773249      -10.5635283199
 H         4.0860298781       -3.7090377372      -11.2002471790
 H         4.4529982392       -2.0822739692      -11.2121934298
 H         5.5364400071       -2.9874639340      -10.1857000552
 Na        1.1768410970        2.9032731340        1.4593339024
