155

 C        -9.4849320855       -8.2496090728        2.2888448075
 C        -8.8898334512       -7.0836035689        1.3459484787
 C        -7.6504995823       -7.4502775590        0.4712276252
 C        -6.4245157739       -6.9031940081        1.4155367102
 C        -5.4183770903       -5.7102228528        1.1107628388
 C        -7.4740753345       -9.0004863214       -0.0278539683
 C        -7.7567284871       -6.6224129537       -0.7945202046
 O        -9.4033733146       -6.0129207848        1.3144145570
 O        -6.2351568739       -7.6080599767        2.3992913178
 C        -5.5240258738       -4.4993112826        2.0749437872
 C        -4.3938676295       -3.5862912509        1.7996263560
 C        -4.4200789122       -2.0742607344        2.4747497489
 C        -4.0969802877       -1.1671827857        1.2124611563
 C        -2.8088653520       -0.2244375967        1.2367339902
 O        -3.3552868418       -3.9306114301        1.3528859106
 O        -4.7739900494       -1.1784954292        0.1943583886
 C        -5.8187692563       -1.6360098459        3.1016014350
 C        -3.4120244434       -2.0462398566        3.5810623674
 C        -2.6274889559        0.4635529748       -0.0523402420
 C        -1.2317056926        1.3101870263       -0.1077730557
 C        -1.1055728394        2.3995301095       -1.1682509555
 C        -1.1528942886        3.7898909495       -0.3654770975
 C        -2.1602660223        4.9521735675       -0.6757358217
 C         0.3382871106        2.2513714536       -1.8730792547
 C        -2.1832015380        2.3237012150       -2.2320676083
 O        -0.3644089200        1.1578675436        0.7541144352
 O        -0.3115355913        4.0157677256        0.4923261577
 C        -1.8353168281        6.0792884337        0.3197830332
 C        -2.0863136408        5.6834738966        1.7814255774
 C        -1.7871942836        6.7885276258        2.8853543527
 C        -1.3287090062        6.0168516655        4.1238348495
 C        -2.1141566535        4.8591619118        4.7622371094
 O        -2.6811383037        4.6387483369        1.9718044436
 O        -0.1697996847        6.1675865031        4.4986471532
 C        -0.7149871570        7.8382238916        2.5399057132
 C        -3.1678945398        7.4960498129        3.2358910281
 C        -1.1206218365        3.9347626418        5.4526386570
 C        -0.0647205351        3.3777494939        4.4311530242
 C         1.1962932020        2.5020290452        5.0949520259
 C         2.3413855652        2.3685233362        4.1841783350
 C         3.7058795047        3.0808293939        4.4873390531
 C         1.6068978511        3.0956562963        6.4646685387
 C         0.4365517097        1.1860829584        5.1767484040
 O        -0.1406183666        3.4869183079        3.2025315895
 O         2.3486763602        1.6108476449        3.2193923784
 C         4.7050396117        2.8683754922        3.4180673239
 C         4.2265384505        3.2759382813        1.9388437742
 C         4.9995720083        2.5761067493        0.7681785881
 C         4.0424969172        1.3653952367        0.3000621623
 C         4.5424618944        0.0208030043       -0.1553378109
 O         3.2143266504        3.9231012818        1.7734883318
 O         2.8713074267        1.6179319068        0.1356898989
 C         4.9857448939        3.6116561716       -0.5087222556
 C         6.4063078688        2.1959448850        1.0420166989
 C         3.5488753833       -0.6996066547       -1.0249902979
 C         4.2137632508       -1.3265925665       -2.2406296488
 C         3.3610634485       -2.2475386199       -3.2090438067
 C         2.9510751788       -1.3322725636       -4.4072318977
 C         3.9725471738       -1.1479401196       -5.6129063932
 C         4.1317771994       -3.4752607888       -3.6455383341
 C         1.9862090581       -2.6471193548       -2.4738348366
 O         5.3819544364       -1.0749609521       -2.5511756268
 O         2.0135903180       -0.5474398825       -4.2342125447
 C         3.1833183833       -1.6657933724       -6.8936853421
 C         3.9710779451       -2.1611894339       -8.1200475411
 C         3.3090527536       -2.8883507146       -9.3122293488
 C         2.8895691656       -4.3460502640       -8.7744055066
 C         3.9157836318       -5.4883281911       -8.4888357516
 O         5.2305607141       -2.1590641949       -8.0698671129
 O         1.7578756254       -4.5006642991       -8.2890038768
 C         2.0857030271       -2.1659539829       -9.9000275210
 C         4.3442623563       -3.0128751603      -10.4142250868
 H        -9.5067319939       -9.2025157104        1.7477901512
 H        -8.9118921590       -8.3496133445        3.2376751929
 H       -10.5082042835       -8.0478994715        2.5783388980
 H        -4.3795316656       -6.0842550368        1.0537230063
 H        -5.6173221603       -5.3024872575        0.1590331919
 H        -7.1181147146       -9.0481773594       -1.0813381021
 H        -8.3381425638       -9.5841014606        0.0058234407
 H        -6.7449584839       -9.4532073458        0.6980246014
 H        -8.7574477304       -6.6360395204       -1.2042595072
 H        -7.6878602710       -5.4577775962       -0.6401799673
 H        -7.1349743252       -6.9390663571       -1.6629079858
 H        -6.5494442458       -4.0660285109        1.8658473892
 H        -5.4820914637       -4.7008375238        3.1442494299
 H        -2.7219507522        0.4767559461        2.0067503491
 H        -2.0418270930       -0.9394272527        1.3376167589
 H        -5.5879486059       -0.7280293173        3.6157329580
 H        -6.0730314742       -2.4909512808        3.6885807652
 H        -6.6029665595       -1.5475642433        2.2634408708
 H        -3.8183009205       -2.3911334086        4.5574251864
 H        -2.4516332987       -2.5065674238        3.2546993711
 H        -3.2110593068       -1.0528306884        3.9087394804
 H        -3.3964510861        1.2029579078       -0.2045047901
 H        -2.5286932379       -0.2826273060       -0.8463527415
 H        -2.2043977549        5.2829932107       -1.7608420895
 H        -3.2062984712        4.6098304128       -0.4536694493
 H         1.0668778264        2.5331949895       -1.0702478007
 H         0.2398707338        2.8407682653       -2.7043553868
 H         0.4260384123        1.1759993914       -2.0382668263
 H        -2.3286823053        1.3383015855       -2.7502415339
 H        -3.1008209160        2.5904036492       -1.7362634837
 H        -1.9900230420        2.9773931522       -3.0978789578
 H        -0.8381033619        6.2958522379        0.2015722864
 H        -2.3218626453        7.0736020583        0.2286128001
 H        -2.8816029704        5.1702766132        5.4521492832
 H        -2.6611847013        4.2919630941        4.0129018896
 H         0.1604179257        7.2920762687        2.2481113200
 H        -0.2073134611        8.4033877405        3.3085855823
 H        -1.0132220925        8.5097897350        1.7729189770
 H        -3.3418609300        8.0893423658        2.3723132695
 H        -3.9118382434        6.7200529205        3.2820919160
 H        -3.1755953231        8.1269642687        4.1235987854
 H        -1.6549695197        3.1162484571        5.9414404067
 H        -0.6783808223        4.6112163634        6.1457608398
 H         3.5424779499        4.1463443529        4.7189541179
 H         4.0863136987        2.5319072100        5.3854163191
 H         1.2741777182        4.1008015236        6.6531629338
 H         2.6810312135        3.4014463306        6.4450620702
 H         1.4588326480        2.5263001815        7.2833536646
 H         1.0435722244        0.3989862729        5.5590307894
 H        -0.3434311236        1.4101437449        5.9950317373
 H        -0.0360940300        0.9086571075        4.2121319885
 H         5.6041554078        3.3410898914        3.7033821853
 H         5.0181428997        1.7814454244        3.4205300844
 H         5.5387060321        0.0988092632       -0.7620073346
 H         4.7893356529       -0.7140299833        0.7056960519
 H         5.4338439003        4.4507385440       -0.1208195853
 H         3.9804366162        3.8094852537       -0.9255857661
 H         5.5452048428        3.1070007172       -1.2836009947
 H         6.7741081259        1.6000084434        0.2495091140
 H         7.0970491616        3.0703260528        0.9589573058
 H         6.5538689708        1.6612844617        1.9260679486
 H         2.7362202329       -0.1074121958       -1.3767337396
 H         2.8116247191       -1.3335272461       -0.4283111955
 H         4.2594146343       -0.0933077347       -5.6587006639
 H         4.7893926263       -1.7821391728       -5.4362703023
 H         5.0435409586       -3.1182947528       -4.0220654711
 H         3.6073454789       -4.0792964109       -4.4362513263
 H         4.3281857775       -4.1719542167       -2.8417669349
 H         1.4201524735       -1.8011420256       -1.9883416110
 H         1.3368614273       -3.1478654385       -3.2538676634
 H         2.1120388785       -3.3644042612       -1.7329511611
 H         2.4872011883       -2.4269742613       -6.6344198388
 H         2.4428187277       -0.9324887016       -7.1561270635
 H         4.4950621678       -5.4213357328       -7.5138502070
 H         3.3910135303       -6.4500524608       -8.4981027072
 H         4.7156038084       -5.7578594595       -9.1950302088
 H         2.2998104437       -1.1119092034      -10.2403108954
 H         1.2133573220       -2.0292711955       -9.2883605998
 H         1.8845305123       -2.8342194404      -10.7710723570
 H         3.8761167013       -3.6042537894      -11.1762919756
 H         4.5831967517       -2.1502536770      -10.8891395570
 H         5.3052174217       -3.3781153153       -9.9941642142
 Na        1.2601704813        2.7712595209        1.4857824569
