155

 C        -9.2273763380       -8.6675900041        1.7978682573
 C        -8.7391860270       -7.4070348478        1.2092442839
 C        -7.4154686900       -7.2622153173        0.3188824739
 C        -6.2264501714       -6.9327504954        1.3616841828
 C        -5.2424244118       -5.7816478244        0.9897363520
 C        -6.9824571948       -8.6499053924       -0.2991083744
 C        -7.6675369265       -6.2634853503       -0.8289744050
 O        -9.3529273743       -6.4144929506        1.4824245996
 O        -5.9829322732       -7.6603529497        2.3557714561
 C        -5.4707425392       -4.4783722959        1.8253902015
 C        -4.3413297407       -3.5727655944        1.7128970755
 C        -4.5315476765       -2.1235429403        2.3355774694
 C        -3.9579240852       -1.0852178576        1.2933964890
 C        -2.6234666149       -0.2902171057        1.3362814068
 O        -3.4043933618       -3.7626817010        1.0163265570
 O        -4.6103817345       -0.9478293488        0.2721515790
 C        -5.9638174241       -1.6304017963        2.6056906685
 C        -3.7701551065       -2.1677337164        3.7172597691
 C        -2.3769895551        0.3854702743       -0.0057114612
 C        -1.1376497640        1.2329614225       -0.0062391900
 C        -1.0358064864        2.4077296468       -1.0669117495
 C        -0.9156785749        3.7713998346       -0.1797500721
 C        -2.0653049640        4.7917769022       -0.3460980268
 C         0.3289204427        2.3049482461       -1.8559138268
 C        -2.2786154937        2.5213828466       -1.9863435998
 O        -0.2000943074        0.8193916407        0.6454127157
 O         0.1004870698        3.9672067525        0.4251316354
 C        -1.7598258510        6.0725251839        0.5102010432
 C        -2.4749545828        6.0815619116        1.8675410417
 C        -1.8126430414        6.9397568070        2.9883820091
 C        -1.0559839931        6.1528714260        4.0791686967
 C        -1.7775526443        4.9213895200        4.6184502874
 O        -3.4968791414        5.4866757592        2.0971846259
 O        -0.0983703585        6.6273745315        4.6105198969
 C        -0.8691457716        8.0143620719        2.3179821629
 C        -2.9640233699        7.6763371986        3.7065954408
 C        -0.9197010102        3.8521065401        5.3098159599
 C         0.3754551195        3.4980631927        4.5586154313
 C         1.4347570746        2.5026141618        5.1817151277
 C         2.6057387273        2.3328125437        4.2448751710
 C         3.9201895392        3.1786456414        4.3009289809
 C         1.9335312751        3.1901281038        6.5757484725
 C         0.7950015527        1.1366597756        5.5049094708
 O         0.4302481942        3.8194599500        3.3611999514
 O         2.5217674034        1.5614005886        3.3005525695
 C         4.8351116104        2.7160307707        3.1659191046
 C         4.2832185850        3.0799356474        1.7718474104
 C         4.9798130058        2.6070611594        0.3802869020
 C         4.0858054634        1.3566635822       -0.1549858405
 C         4.8054135181        0.0918703596       -0.4562733191
 O         3.3322829086        3.8450886339        1.7193659091
 O         2.8745540869        1.4348085963       -0.1542088474
 C         4.8611249060        3.7459236281       -0.5707680270
 C         6.4766759391        2.2979755354        0.5708831150
 C         3.8550133145       -1.0812987434       -0.9078099566
 C         4.1398348674       -1.5955235372       -2.3667200978
 C         3.0598368839       -2.4161592587       -3.1435963246
 C         2.6833439658       -1.2704815748       -4.2854257044
 C         3.5357745066       -1.2862814243       -5.5546888302
 C         3.9148278469       -3.5376288476       -3.7654381433
 C         1.8525722242       -2.8043847226       -2.4032044252
 O         5.1534964132       -1.2766205473       -2.9520857165
 O         1.9030033987       -0.4090255025       -3.9699818848
 C         2.6898508371       -1.6681923924       -6.8429837978
 C         3.5256627274       -2.2643214871       -7.9802612283
 C         2.8873435816       -3.0187139369       -9.0996849269
 C         2.2840946090       -4.3504102195       -8.3982044325
 C         3.0154213171       -5.6671008625       -8.4178633543
 O         4.7784023769       -2.3009804206       -7.8082341888
 O         1.2825714649       -4.2086504035       -7.6960525137
 C         1.6757711782       -2.2025308596       -9.6998821444
 C         3.9447343454       -3.2723788380      -10.2735825921
 H        -9.6507389406       -9.2820214802        1.0051508985
 H        -8.4194602493       -9.2148562435        2.2952056494
 H        -9.9544784201       -8.4097293552        2.5534008342
 H        -4.2554106137       -6.1722275468        1.3701932020
 H        -5.2544979426       -5.6532577743       -0.0082050059
 H        -5.8846406286       -8.7857285239       -0.2010669471
 H        -7.1904246011       -8.6434525382       -1.3164821746
 H        -7.3752232073       -9.5445447497        0.1949001088
 H        -7.8270042693       -6.8568164044       -1.7029397753
 H        -8.4382083117       -5.5067278263       -0.6130988428
 H        -6.6900137769       -5.7509827905       -1.1234004052
 H        -6.4878948063       -4.0105503794        1.7375789178
 H        -5.5566775180       -4.8308887008        2.8568247331
 H        -2.6577755449        0.4712811987        2.1687960476
 H        -1.8953227743       -1.0686281186        1.5463843754
 H        -5.9016819548       -0.7309730089        3.1302694644
 H        -6.5001245581       -2.3482777166        3.1979913831
 H        -6.3042228299       -1.5601137126        1.5428290113
 H        -4.3903021919       -2.8192893274        4.4023761141
 H        -2.7484497051       -2.6771818926        3.5643174672
 H        -3.5197756982       -1.1781585457        4.1447737718
 H        -3.1857507887        1.0733797525       -0.2964386692
 H        -2.2958361125       -0.3742070693       -0.7988836374
 H        -2.1937621851        5.0972007085       -1.3753837972
 H        -3.0443846122        4.4317249122       -0.0107972626
 H         1.0457515197        2.2376632769       -1.0988022570
 H         0.4225134505        3.2524796430       -2.3823040346
 H         0.1795524982        1.5016667049       -2.5652869408
 H        -2.3743867606        1.6786752077       -2.6596143695
 H        -3.2004405109        2.5077655600       -1.5166532290
 H        -2.1846456993        3.4128550391       -2.5927998573
 H        -0.7349626021        6.0248090220        0.7562311181
 H        -1.9062298903        7.0177666389       -0.0914088632
 H        -2.5254976985        5.3223417412        5.3342458848
 H        -2.4878248041        4.4509675045        3.8952757697
 H         0.1569159721        7.7536051387        2.0279281694
 H        -0.7240962653        8.8219430528        3.1214285347
 H        -1.2517393074        8.5205197066        1.4070172844
 H        -3.4057963787        8.4049071484        3.0546603393
 H        -3.7504011571        6.9796626653        4.0666110583
 H        -2.4207486558        8.3134511625        4.4677461845
 H        -1.5238761231        2.9089792538        5.4788041373
 H        -0.7009259889        4.3787433671        6.2278942662
 H         3.6667599016        4.2395278907        4.3225583900
 H         4.4196172663        2.9155187678        5.2571829415
 H         2.6560960652        3.9887463500        6.4960269805
 H         2.3030373439        2.3769670887        7.2816264915
 H         1.1830101377        3.7383974820        7.0600970942
 H         1.5065676687        0.5097538508        6.0333037360
 H        -0.0158461204        1.3237984729        6.2514644633
 H         0.5870317589        0.5435726241        4.6099174651
 H         5.7911340690        3.2021715933        3.3844804407
 H         5.0835768408        1.6096258647        3.2492234043
 H         5.5198001515        0.1969749030       -1.3236257026
 H         5.4481772704       -0.2001200335        0.4386906239
 H         5.6019813943        4.4425596536       -0.4190005735
 H         3.8504063533        4.1214796139       -0.3201003247
 H         4.8601459111        3.3713394628       -1.6169794662
 H         6.8334065148        1.8279879921       -0.2635340523
 H         7.0923692292        3.2276776357        0.6723621424
 H         6.7423746024        1.6567245934        1.4365024205
 H         2.8519852817       -0.7294042488       -0.7343943333
 H         3.9056317093       -1.9978470297       -0.2159531298
 H         4.0495092462       -0.3291059281       -5.7009371997
 H         4.3111837045       -2.0407689217       -5.4349876236
 H         4.8983041312       -3.2922715119       -4.0581757667
 H         3.3502574935       -3.9688147635       -4.6769238729
 H         4.1094037422       -4.2915146771       -2.9961249952
 H         1.2567428952       -1.8995703849       -2.1852132007
 H         1.3204439949       -3.6928183165       -2.8949827086
 H         2.1046658383       -3.1086649898       -1.3992604374
 H         1.7755501152       -2.1607500184       -6.5446960646
 H         2.2905516487       -0.7657444828       -7.2969607266
 H         3.8938413781       -5.8420805417       -9.0848402739
 H         3.2366101808       -5.9743496809       -7.3842078692
 H         2.3778813932       -6.4516988433       -8.7844284381
 H         1.9994284880       -1.1468804231       -9.9456624696
 H         0.9066860299       -2.1106059269       -9.0344085945
 H         1.3151478890       -2.6277866142      -10.6434935540
 H         3.6685534625       -4.1262718967      -10.8959283406
 H         3.9116910572       -2.3384224187      -10.8114418611
 H         4.9644735643       -3.5083201993       -9.9357874446
 Na        1.3359997811        2.5069797394        1.5813382600
