155

 C        -8.8435557593       -8.8377605017        1.6272738196
 C        -8.5082199476       -7.4471259267        1.1222724614
 C        -7.2842670226       -7.3028504597        0.2201963063
 C        -6.1620822372       -7.0178226421        1.2854077815
 C        -5.0119354885       -5.9278574204        1.0543625035
 C        -6.8261188072       -8.5617998261       -0.5645943114
 C        -7.5551529728       -6.0991572125       -0.6749510916
 O        -9.2081982366       -6.5193078474        1.5095243100
 O        -6.2302520762       -7.5765122497        2.3221450658
 C        -5.4782774747       -4.5445376646        1.6359050575
 C        -4.4314729466       -3.4488011011        1.5586231557
 C        -4.6472904789       -2.1234933981        2.2031573379
 C        -4.1378105367       -1.0487307589        1.1784195960
 C        -2.5548655281       -0.6392117476        1.1938426506
 O        -3.3146505378       -3.7816822913        1.1261315619
 O        -4.8290373657       -0.7218369024        0.2643564666
 C        -6.0648573236       -1.8068987090        2.5307414276
 C        -3.8364854022       -2.1452207927        3.5067989567
 C        -2.4149093295        0.4459830801        0.0859409204
 C        -1.1003744642        1.2842454969       -0.0270231682
 C        -1.0944587995        2.4273992488       -1.0939987900
 C        -0.9061060254        3.7432520417       -0.1172316582
 C        -2.0421695806        4.6687914797        0.0731887208
 C         0.2508359139        2.2377452363       -2.0007588205
 C        -2.3361918040        2.5150353013       -2.0533920091
 O        -0.1790577849        1.1626934025        0.7969384238
 O         0.1921745437        4.0428986921        0.4017004990
 C        -1.6821333857        6.0372939018        0.6928096435
 C        -2.5460837782        6.3293127763        1.9242350320
 C        -1.8555546333        7.2475403558        3.0759845010
 C        -1.0558981384        6.2455864892        4.0048331118
 C        -1.4904787666        4.8049016688        4.1661608340
 O        -3.5639517140        5.6736874631        2.1231852353
 O         0.0199931466        6.6123343108        4.5121582962
 C        -0.9839385288        8.2476426075        2.4799762982
 C        -3.0454896447        7.9130973724        3.9015497261
 C        -0.5541842602        4.1407513483        5.2554725874
 C         0.6350051052        3.4736582007        4.6326454546
 C         1.6046035405        2.5132683338        5.4861957048
 C         2.7252214947        2.1740754213        4.2848648544
 C         3.9679146419        3.0974458176        4.1870956896
 C         2.0858175368        3.2591367490        6.6818855785
 C         0.9314994994        1.1535699915        5.7712159147
 O         0.7530586983        3.5656859028        3.4267963670
 O         2.3992626539        1.3241474296        3.4693529391
 C         4.8879365553        2.7933123675        2.9954461726
 C         4.3812957792        3.2148897298        1.6611342774
 C         5.0567559508        2.6822027130        0.3787164234
 C         4.3042765493        1.2957852809        0.0366719278
 C         4.8878958667        0.0044529191       -0.5571154525
 O         3.3366687624        3.8211964646        1.6070388614
 O         3.0899998668        1.3239970934        0.0854149120
 C         4.6731810551        3.6121785826       -0.8247195924
 C         6.6618069202        2.5090693565        0.5550275754
 C         3.8271437030       -1.0414011670       -0.9910787640
 C         4.2069096584       -1.6278644389       -2.3945105552
 C         3.0672501208       -2.4115749214       -3.1464026621
 C         2.5800830963       -1.2753169789       -4.2025801619
 C         3.3757770208       -1.0571253756       -5.6168349014
 C         3.4360404386       -3.7605002424       -3.9112501712
 C         1.8976800947       -2.8207955351       -2.2432360706
 O         5.2704861569       -1.2849096711       -2.9299054117
 O         1.5942830396       -0.5960070875       -3.9256930699
 C         2.6014132415       -1.5447743522       -6.8393431221
 C         3.4579478858       -2.3320661225       -7.8143521892
 C         2.5855872870       -3.0448895553       -9.0064883835
 C         1.9920625935       -4.3512159121       -8.2819588390
 C         2.5692057539       -5.7590906037       -8.5448335001
 O         4.6761200164       -2.3114691231       -7.8195799990
 O         1.0627106773       -4.2210042219       -7.5348067911
 C         1.4506475212       -2.2233659129       -9.5015959935
 C         3.5438018558       -3.5230743067      -10.0777135488
 H        -8.8340505677       -9.6281444403        0.8551113305
 H        -8.1126484973       -9.1616822996        2.3878871021
 H        -9.8174120553       -8.6888149124        2.1209547697
 H        -4.2894753078       -6.2517868351        1.7365254678
 H        -4.6194182291       -5.8613776706       -0.0404032805
 H        -6.0086750494       -8.2565062014       -1.1855636517
 H        -7.7020118827       -8.9318410786       -1.1754093671
 H        -6.3747056658       -9.3584035418        0.0332969434
 H        -8.2716887598       -6.3898373039       -1.5114819168
 H        -7.9806696407       -5.3278651026        0.0161257379
 H        -6.6626819961       -5.7012064755       -1.0932047134
 H        -6.5060042818       -4.3234885661        1.4362111593
 H        -5.5824703855       -4.7571979389        2.7227146471
 H        -2.3906599566       -0.2313688305        2.1240127847
 H        -2.0217016266       -1.5743103699        1.0951454203
 H        -6.1026793462       -0.9333328074        3.2695607696
 H        -6.4159993952       -2.6578404522        3.1625731014
 H        -6.4475457955       -1.6702582435        1.5289244874
 H        -4.3741178905       -2.7654229618        4.1967153604
 H        -2.9453634565       -2.6899297088        3.3435149445
 H        -3.5734763404       -1.1254653945        3.8338427957
 H        -3.2431278967        1.1417373014        0.1122224156
 H        -2.5302609088       -0.0523591603       -0.8857531601
 H        -2.6305427133        4.9303757027       -0.8436917693
 H        -2.8390123802        4.2623541872        0.7825137190
 H         1.0779683498        1.9749877964       -1.2312867177
 H         0.5126727821        3.1571643778       -2.5102549076
 H        -0.1524721832        1.5483262321       -2.7299868353
 H        -2.6039376311        1.4966686184       -2.3642312402
 H        -3.3372434029        2.7966949809       -1.5658389523
 H        -2.2309992095        3.2530960800       -2.8621894655
 H        -0.6264125284        5.9479687791        1.0731958453
 H        -1.7017766653        6.8061377047       -0.0548440275
 H        -2.5193820802        4.7075602687        4.4501353028
 H        -1.4356422253        4.2761958500        3.2450329867
 H        -0.3106618671        7.8272581782        1.7324108399
 H        -0.4882444702        8.7959331953        3.2081651205
 H        -1.5015308524        8.9532261654        1.8773401308
 H        -3.4850958617        8.7260723218        3.2826754380
 H        -3.8267527468        7.2105784233        4.0205732795
 H        -2.6640725556        8.3675179636        4.7453914060
 H        -1.1393769386        3.4090917924        5.7181956473
 H        -0.3202824255        4.9523265071        5.9435115934
 H         3.4247662643        4.0677852584        4.1113408357
 H         4.4765647257        3.0974214027        5.1490734232
 H         3.1660636024        3.2458425875        6.7795162980
 H         1.6148065221        2.8066012736        7.5171762333
 H         1.9768376125        4.3472615510        6.6835767434
 H         1.6232936511        0.4482702450        6.2384648279
 H         0.0695290245        1.2642271639        6.4288947637
 H         0.7379480882        0.6748510104        4.8093330466
 H         5.8391902281        3.2657593048        3.2466316067
 H         5.0891227092        1.7445345197        2.9510655957
 H         5.5805690655        0.1925660414       -1.4249337744
 H         5.5074811756       -0.4543142487        0.2184926371
 H         4.4784503226        4.6607646908       -0.4290820190
 H         3.7632178742        3.1967729351       -1.2100182261
 H         5.5034402900        3.6805119085       -1.5079291450
 H         7.1482006666        1.8249645253       -0.2381194090
 H         7.1570873457        3.4766606072        0.6209153004
 H         6.8826934970        2.0694694381        1.4804288392
 H         2.8360425264       -0.4110240706       -1.0944237876
 H         3.6514119601       -1.7660193422       -0.2084586530
 H         3.3525699998        0.0317817119       -5.7538468945
 H         4.4312952669       -1.2830844279       -5.6763697508
 H         4.4811425187       -3.7735867735       -4.2749655272
 H         2.7763602372       -4.0091108239       -4.6725523840
 H         3.4276184095       -4.4452795817       -3.0569971201
 H         1.5178097707       -2.0522569049       -1.5636761721
 H         1.1121498054       -3.1306999994       -2.8645864790
 H         2.1524602983       -3.6687591391       -1.5858946775
 H         1.7551798828       -2.1824325709       -6.5128020351
 H         2.1374396253       -0.6571043654       -7.3227113338
 H         2.4563908430       -6.1557540499       -9.5465068871
 H         3.6042335327       -5.8939641409       -8.1944377386
 H         1.9686742868       -6.5635981775       -8.0328126919
 H         1.5973311264       -1.1669606409       -9.6452993683
 H         0.5367695284       -2.4488095313       -8.7871366397
 H         1.1204319736       -2.5779318335      -10.5018168847
 H         3.1215101499       -4.3107157256      -10.6620203058
 H         3.9752407240       -2.7417614090      -10.6137965816
 H         4.2549119219       -4.2096634197       -9.6287897414
 Na        1.5874427137        2.4939676903        1.3114235098
