155

 C        -6.6126653682       -9.7429360872        0.6938980396
 C        -7.1630026568       -8.4110191671        0.2118823077
 C        -6.2844466611       -7.4099714396       -0.5910334333
 C        -5.3167683754       -6.7177901124        0.5245305270
 C        -4.5955666935       -5.4010978934        0.1210282823
 C        -5.3762655944       -8.1114951952       -1.5911385362
 C        -7.2999294687       -6.3269373472       -1.1989842123
 O        -8.2636782065       -8.0642144081        0.6060242320
 O        -5.3014705953       -7.2052759419        1.6176510699
 C        -5.0536445053       -4.2967025489        1.0545880504
 C        -4.1147838965       -3.0010593574        0.9484905012
 C        -4.3235279461       -1.9313904568        2.1031777995
 C        -4.2057575841       -0.4909006702        1.5170389971
 C        -2.7619372360        0.1449260172        1.5400712413
 O        -3.2400374622       -2.8722450129        0.1487310072
 O        -5.1430731626        0.2678953401        1.2060523549
 C        -5.7413808365       -2.0208420662        2.6303018925
 C        -3.2232483319       -2.2855985647        3.1862000294
 C        -2.5851425773        1.2025206000        0.4865112031
 C        -1.2417393372        1.8714314310        0.4793333575
 C        -0.7784140392        2.9133344770       -0.6712327678
 C        -0.3434588648        4.2416820085        0.0644282539
 C        -0.9266496655        5.5978187859       -0.3118276837
 C         0.4653290663        2.3211669398       -1.4350506078
 C        -1.9363056237        3.2380675994       -1.7318704168
 O        -0.4205411030        1.4898699697        1.2643915514
 O         0.3917693478        4.2176911536        1.0093752766
 C        -1.0443836114        6.5852815616        0.8694623288
 C        -1.7199909256        6.0639395244        2.1589295253
 C        -1.4973637768        7.0379036342        3.3765180014
 C        -0.0834086452        6.6857003060        3.9108535135
 C        -0.0992933949        5.6859946883        5.0847067148
 O        -2.3072134274        5.0103276122        2.2901955491
 O         0.8903412026        7.0127740052        3.3339033233
 C        -1.4880160681        8.5332756480        2.7237051517
 C        -2.6542708647        6.8581234530        4.3958161067
 C         1.2326886660        5.1278583663        5.5655152050
 C         1.7040021117        3.9042754751        4.7437426856
 C         2.7238106318        2.9549904700        5.3895738111
 C         3.6221386527        2.3868124118        4.1363055052
 C         4.7947053489        3.2713798433        3.5860783663
 C         3.6216018086        3.5455724659        6.4936203370
 C         1.9279549255        1.9028657978        6.1288349481
 O         1.1115452209        3.6684705126        3.7151225961
 O         3.2548495860        1.3712327397        3.5900131215
 C         5.5016709872        2.6579730443        2.3548913066
 C         4.7434120283        2.9510270285        1.0290332727
 C         5.0486545837        2.1602982978       -0.2404058538
 C         4.0612187915        0.9280415841       -0.0316929525
 C         4.3751697647       -0.4319169997       -0.7589249160
 O         3.7832094315        3.7035198606        1.0601418974
 O         3.0085968564        1.0349837959        0.5485187382
 C         4.5026798471        2.8957953227       -1.4880463355
 C         6.5796194092        1.7529326551       -0.2262618119
 C         3.1701891958       -1.1758035953       -1.3104434836
 C         3.5762296669       -1.9880333776       -2.5870948963
 C         2.4135917503       -2.7208518022       -3.3473707815
 C         1.4139669912       -1.5357867793       -3.8619430739
 C         1.4149748603       -1.1146876477       -5.3530041583
 C         2.8833357390       -3.6313750382       -4.4745187856
 C         1.5879441827       -3.6333632570       -2.3255937495
 O         4.6733175310       -1.8564850593       -2.9949416269
 O         0.6580102521       -0.9893617946       -3.0991489377
 C         0.2918398562       -1.9435801017       -6.0933042935
 C         0.9393527056       -2.5050914587       -7.4308229191
 C         0.2804558884       -3.7099728084       -8.2081387267
 C        -0.3060080215       -4.7914372722       -7.2297012651
 C        -1.4083398782       -5.6565953796       -7.7401504282
 O         1.9703168357       -1.9818635876       -7.7974902369
 O         0.1767446839       -4.8845654061       -6.1127820625
 C        -0.8933448680       -2.9011926335       -8.9852403389
 C         1.2705608662       -4.3113464351       -9.2389226516
 H        -6.6127420405       -9.8074458904        1.7744453472
 H        -7.1451373333      -10.5492674055        0.1904889623
 H        -5.5691397930       -9.8841546217        0.4605891336
 H        -3.5519147393       -5.5512669571        0.1749725187
 H        -4.9981561763       -5.2065767366       -0.9065298934
 H        -4.5756081360       -7.4969907157       -1.9254561651
 H        -5.8285089757       -8.5344790289       -2.5234740174
 H        -4.8797025691       -8.9774343419       -1.1138955151
 H        -7.6587886841       -6.9035409245       -2.0696506303
 H        -8.1433907182       -6.2295325558       -0.5058070500
 H        -6.8254544611       -5.4715510460       -1.5459330944
 H        -6.1296782169       -3.9743093451        0.8591804777
 H        -4.9976397575       -4.6452571920        2.0750785723
 H        -2.5695754596        0.6081115362        2.4397855398
 H        -2.1156891445       -0.6782276722        1.4036596287
 H        -5.8047734196       -1.4285431146        3.5238415923
 H        -6.0989244982       -2.9778506918        2.9333265129
 H        -6.5016716666       -1.4736300143        1.9641320313
 H        -3.5081700354       -3.2211679151        3.6368420933
 H        -2.3291202091       -2.4487941623        2.6533354928
 H        -3.1254589261       -1.4326906223        3.8873470443
 H        -3.4106662331        1.9868616629        0.6592790545
 H        -2.6889017094        0.7020392850       -0.5118591324
 H        -0.2483169530        6.0104966089       -1.0342761014
 H        -1.8901890491        5.6251603199       -0.8435203558
 H         1.3609896780        2.4890322917       -0.7945880884
 H         0.6006676838        2.7578080209       -2.4063998881
 H         0.1768069600        1.2509131223       -1.6814524599
 H        -2.1170058426        2.3249289747       -2.2760282795
 H        -2.8652362219        3.6848634011       -1.3636508962
 H        -1.5380384043        3.8875009782       -2.4910597985
 H        -0.0078298675        6.8441659212        1.1858546096
 H        -1.3985058975        7.4225905012        0.4317024722
 H        -0.5007692201        6.2446012195        5.9551467999
 H        -0.8210053194        4.8575383398        4.9172537913
 H        -0.5572990820        8.5645642254        2.1051329523
 H        -1.5112084686        9.2940904066        3.4619754353
 H        -2.3321003129        8.6506075642        2.0458158999
 H        -3.7619544964        6.8319511834        4.1417092556
 H        -2.5604086000        5.8776048550        4.8787562896
 H        -2.5529978679        7.6559420339        5.1218528984
 H         1.2461142733        4.9332478179        6.6897311234
 H         1.9892965677        5.9226545041        5.5824417095
 H         4.2753079081        4.2070207353        3.3119171830
 H         5.5607370990        3.4735986934        4.4040201614
 H         4.6224732970        3.1044518664        6.5459486350
 H         3.0651283910        3.3586065140        7.4493623760
 H         3.8079453913        4.5464305010        6.3677842866
 H         2.5127873030        1.1657573573        6.5982468062
 H         1.4052367123        2.3561668719        6.9858898394
 H         1.2654101289        1.2590458553        5.5399331110
 H         6.5757406907        2.9663655662        2.3174835960
 H         5.5929692524        1.6363916425        2.5705152402
 H         5.0701254185       -0.1615741045       -1.6589662965
 H         4.9115435473       -1.0467089983        0.0153867373
 H         4.1306069230        3.9159644065       -1.2661369057
 H         3.6446335623        2.3881594357       -1.9338554159
 H         5.2602573111        3.0021351233       -2.2760406854
 H         6.8421116743        1.1033793748       -1.0275202580
 H         7.2593955580        2.6856198639       -0.1997696766
 H         6.6919531225        1.2682794440        0.6920691504
 H         2.3204318382       -0.5095592435       -1.6425050591
 H         2.5774015377       -1.7754109170       -0.5834553913
 H         1.1494771079       -0.0709110431       -5.3139449711
 H         2.4360003249       -1.1683394454       -5.8122461428
 H         3.5176097305       -3.0866983485       -5.1080368419
 H         1.9436851643       -3.9655686875       -4.9509631321
 H         3.4217977114       -4.3946570195       -3.8696519972
 H         1.0465935456       -2.9982717162       -1.5210562574
 H         0.7745951256       -4.1367227602       -2.8622809881
 H         2.3362325775       -4.2698311787       -1.9708806498
 H        -0.2358067778       -2.7811732826       -5.6187422703
 H        -0.5370970265       -1.3271286815       -6.4020030224
 H        -2.2515520710       -5.7193267509       -7.0698852323
 H        -1.8839317788       -5.2980719164       -8.6273167517
 H        -1.0647237061       -6.6680582198       -7.9241190617
 H        -0.5471551376       -2.0196249711       -9.4764379419
 H        -1.6457569001       -2.7408929381       -8.2462015541
 H        -1.3946801755       -3.5086349433       -9.7202857585
 H         0.7589758152       -4.9989685679       -9.8923307939
 H         1.7654477935       -3.5524268497       -9.7437540134
 H         1.9647188709       -5.0607528789       -8.8222712825
 Na        1.6512037951        2.4347076103        1.8607169049
