155

 C        -3.0773814795       -8.6562126120       -0.4476372788
 C        -4.4191174414       -8.3019785072       -1.1559174218
 C        -4.9082329867       -6.8201232616       -1.5782890060
 C        -4.9085714098       -6.0478356800       -0.2260832659
 C        -4.3671632491       -4.5449817891       -0.1856774893
 C        -3.9796323764       -6.1932380662       -2.6321599430
 C        -6.3669168634       -6.9102654733       -2.0673792948
 O        -5.1522586717       -9.2422718097       -1.3453511866
 O        -5.2248913776       -6.5725182809        0.8172707658
 C        -4.7555510237       -3.8310007476        1.1391751035
 C        -3.9274538291       -2.4909623129        1.2836455257
 C        -4.1130132335       -1.6875702284        2.6001189824
 C        -3.7242258281       -0.1920196021        2.3919564851
 C        -2.2755694787        0.1449272483        1.8141436773
 O        -3.1275686395       -2.0728205236        0.4710589542
 O        -4.4802901149        0.7098543880        2.5822032090
 C        -5.5146109456       -1.7459192685        3.1721136583
 C        -3.2225583771       -2.3056508763        3.6283819094
 C        -2.2791987100        1.5347005639        1.1528159016
 C        -0.9099406421        2.2410160272        0.9277317395
 C        -0.7861988826        3.4834532028       -0.1416983966
 C         0.1728517987        4.6208507305        0.3815882067
 C        -0.1681365629        6.0737093975       -0.0686460373
 C        -0.0704186138        3.0440113756       -1.4783675349
 C        -2.2444171841        3.9917716103       -0.4808990459
 O         0.0686639116        1.8421728410        1.5722879563
 O         1.2872387059        4.3538546615        0.7593687653
 C         0.0154695972        6.9257254343        1.2743404984
 C        -0.9075977321        6.2812681378        2.3106953477
 C        -1.1177612005        7.0948854800        3.6556304157
 C         0.2515456965        6.6660571761        4.5519493920
 C         0.0792964907        5.4157036825        5.4717717828
 O        -1.4228388039        5.1982200843        2.1296163625
 O         1.2467071977        7.3267653110        4.5565002300
 C        -1.1883364294        8.5729412761        3.4955930896
 C        -2.4169492667        6.5364788621        4.2993269851
 C         1.4832986226        4.8203055729        5.9347310344
 C         2.2720825496        4.1550664558        4.7643365928
 C         3.8581946614        3.8725357812        4.9472157957
 C         4.1510533727        2.6624220927        4.0444178965
 C         5.5303864888        2.5631929138        3.3218617478
 C         4.6288173502        5.1245745499        4.3993732174
 C         4.0967171249        3.5642479825        6.4314052904
 O         1.7066014450        4.0258908554        3.6719693916
 O         3.3823334156        1.7215399734        4.0520783060
 C         5.6968045469        1.4407165946        2.1797518846
 C         5.2398903841        2.0232657507        0.8978097551
 C         5.4900562504        1.3186358202       -0.4135510748
 C         4.0908968403        0.4371699898       -0.6595333148
 C         4.1975272760       -0.6049587816       -1.7863373161
 O         4.4483674985        2.9876031504        0.9841218977
 O         3.1692266926        0.5301660234        0.0800526978
 C         5.7131134726        2.4562822795       -1.5026478145
 C         6.6678947380        0.3068320629       -0.3128476300
 C         2.7872501477       -1.0763124563       -2.1354727398
 C         2.7424500586       -2.2781168718       -3.0927204731
 C         1.3425275380       -3.0061397614       -3.3732980357
 C         0.5585281295       -2.0134442254       -4.2351567657
 C         0.0425916799       -2.5066987070       -5.6271834127
 C         1.6853422235       -4.3056663318       -4.0906026710
 C         0.3702577491       -3.3247803292       -2.1607616323
 O         3.6311402589       -2.4702932167       -3.9923195328
 O         0.3011971042       -0.8941353158       -3.8197093162
 C        -1.4358316664       -2.8998676345       -5.7727483850
 C        -1.8897681024       -3.3417738155       -7.1865942333
 C        -3.3009948825       -4.0029382522       -7.3207589902
 C        -2.9487475671       -5.5243176372       -6.7382971556
 C        -2.6061012727       -6.6774551538       -7.6834378572
 O        -1.1064469815       -3.4866483576       -8.1133066440
 O        -2.8965409420       -5.5996759528       -5.5256842855
 C        -4.2715450813       -3.3462142107       -6.3675892412
 C        -3.8450425112       -3.9609874000       -8.8156547119
 H        -3.2170060527       -8.6651879388        0.6406885064
 H        -2.7787086981       -9.6360652735       -0.8533648432
 H        -2.3459126114       -7.8938386059       -0.5763834380
 H        -3.3548796100       -4.4856429648       -0.3454178772
 H        -4.9934422955       -4.0893860464       -0.9587881540
 H        -4.5929080472       -6.0057629356       -3.4240300074
 H        -3.2428194570       -6.9382458479       -2.8997281061
 H        -3.4372285637       -5.2509333753       -2.3139546359
 H        -7.0357816651       -7.5689535270       -1.5813717129
 H        -6.9217831853       -5.8855261398       -1.9890004412
 H        -6.4460304338       -7.2297967582       -3.1650265584
 H        -5.7864864073       -3.4386259647        0.9893022912
 H        -4.6110799242       -4.4759572822        2.0162461452
 H        -1.7206660880       -0.0218092594        2.8067027859
 H        -1.9265224937       -0.6902997825        1.2018930554
 H        -5.6329950555       -1.1351386137        4.0881209660
 H        -5.8263703291       -2.6926202517        3.6603485607
 H        -6.3436233834       -1.3346211240        2.6923961469
 H        -3.6559284562       -3.1957957201        4.0751622716
 H        -2.2554491754       -2.5682757318        3.3100638193
 H        -3.0666583380       -1.6898940418        4.5268645299
 H        -2.8584121935        2.1786389216        1.7967246842
 H        -2.8622591336        1.4693489557        0.2363932325
 H         0.5230200855        6.4202222481       -0.8624852257
 H        -1.2290287927        6.2358158053       -0.3778662150
 H         0.7261035191        2.3367342189       -1.2692973405
 H         0.3753002989        3.8434501493       -2.0806223788
 H        -0.7850379314        2.5196586075       -2.1438021727
 H        -2.9354244082        3.2279729658       -0.8353170536
 H        -2.6818024212        4.5663264353        0.2672569261
 H        -2.0880450350        4.6996995960       -1.2622187072
 H         1.0374005515        7.0592049255        1.6733282209
 H        -0.3688506185        7.8618693727        1.0953468861
 H        -0.5184440511        5.7283839895        6.3107574466
 H        -0.5770194844        4.7224391115        4.9322818067
 H        -0.1794545449        8.9986217298        3.3906829265
 H        -1.4766870980        9.0856838112        4.3986434917
 H        -1.9286621085        8.7975173871        2.7224353747
 H        -3.2648743208        7.2089598053        4.0616662919
 H        -2.6940093504        5.4591556739        4.0490304239
 H        -2.3119506813        6.5929140561        5.4207412893
 H         1.3684464132        4.1228523352        6.7187735870
 H         2.0367839891        5.6713670379        6.3199381790
 H         5.7895919337        3.5318041625        2.8591279627
 H         6.2655284681        2.4156547424        4.0625205940
 H         5.6317389315        4.9436063123        4.6506867112
 H         4.3578529855        6.1319030327        4.7559223856
 H         4.3142259007        5.0883717472        3.2790286905
 H         5.1621183259        3.6956435369        6.6062605273
 H         3.4501623134        4.1931046399        7.1664358088
 H         3.7778081921        2.5195610847        6.6740872838
 H         6.7273843478        1.1052804893        2.0870080335
 H         5.0600694006        0.5206865518        2.4613681304
 H         4.5171031348       -0.1475774305       -2.7540213647
 H         4.7382494507       -1.4734015098       -1.5596766365
 H         4.9816636231        3.1776058379       -1.2225009522
 H         5.4857469148        2.1400449900       -2.5742694882
 H         6.6442018692        2.9232628844       -1.3687971192
 H         6.8103613575       -0.2991176818       -1.2035161163
 H         7.5283716877        0.8249260607       -0.1465059363
 H         6.4391973684       -0.3843280646        0.5957909109
 H         2.1128404457       -0.3698706026       -2.4674337593
 H         2.2707268227       -1.3407362215       -1.2294048441
 H         0.2586594542       -1.7695265707       -6.3854554152
 H         0.6881394982       -3.3292248294       -6.0327482857
 H         2.2089684193       -4.1056009302       -5.0705036130
 H         0.8434088897       -4.9337309016       -4.2536665460
 H         2.3702520617       -4.9555645531       -3.5948496031
 H         0.1551488624       -2.4045911773       -1.6131862640
 H        -0.6036449789       -3.8469656994       -2.2965462605
 H         0.8314907231       -3.9663770577       -1.4732294082
 H        -1.6664134426       -3.7860163023       -5.1719203507
 H        -2.0867220710       -2.1910200710       -5.3076062283
 H        -3.4668280316       -7.3638322731       -7.5947910460
 H        -2.2046530031       -6.3373340370       -8.6767150390
 H        -1.8406721374       -7.2859927937       -7.2179257744
 H        -4.0961188187       -2.3171042682       -6.0801056514
 H        -4.1263679359       -3.7667152313       -5.4483422587
 H        -5.2899516453       -3.4067348298       -6.7218743570
 H        -4.8248331053       -4.4142811591       -8.9131538424
 H        -3.8853034317       -2.8937605164       -9.1166610861
 H        -3.1011991807       -4.3882832821       -9.4153433139
 Na        2.3944501084        2.4091565014        1.7499509302
