155

 C        -2.6456736555       -8.0389371981       -0.5772121379
 C        -4.0155955543       -8.0753194172       -1.2695043200
 C        -4.7874767258       -6.6526900434       -1.4166420683
 C        -4.8494050263       -5.9247697112       -0.0702160060
 C        -4.2430330004       -4.5120525448       -0.0545806780
 C        -3.8708630773       -5.9094478165       -2.5432253109
 C        -6.1394589180       -6.9122473894       -2.0838092843
 O        -4.1395184998       -9.1341067364       -1.8872571517
 O        -5.3718256159       -6.3887271228        0.9202815529
 C        -4.4824196860       -3.6769319248        1.1880357732
 C        -3.6639385993       -2.4003681231        1.2659904421
 C        -3.9564134917       -1.4987205037        2.6258036838
 C        -3.5940439056       -0.0325312150        2.4431767046
 C        -2.2282685663        0.3828942695        1.9694719941
 O        -2.7981068112       -1.9584474503        0.5286709069
 O        -4.4328423163        0.8245385927        2.6399042918
 C        -5.3772071884       -1.5969049167        3.2818918014
 C        -2.9855205585       -2.2267044175        3.5960753371
 C        -2.1199811125        1.8814224122        1.8110334188
 C        -0.8254894192        2.2768817763        0.9750416597
 C        -0.6705933819        3.5316611676       -0.1294918937
 C         0.2145542634        4.6469599642        0.5241363274
 C        -0.2345734943        6.1398577632        0.1346692702
 C        -0.0327547664        2.8336238849       -1.3938282757
 C        -2.0649231485        4.0468454484       -0.4349569724
 O         0.1945970667        1.6196182576        1.1362331837
 O         1.3160659045        4.5216251550        1.0559690529
 C        -0.3960151895        7.1252579117        1.3312733213
 C        -0.9697185752        6.3461666075        2.4566524383
 C        -1.0581656309        7.0411529019        3.8554028905
 C         0.2983086886        6.5701783941        4.5673965234
 C         0.1870636242        5.2079568057        5.3171434845
 O        -1.1953595187        5.1632031959        2.4456486338
 O         1.3373850398        7.1514516902        4.3316647947
 C        -1.0685353855        8.6872695938        3.7119323690
 C        -2.4210526864        6.7199737127        4.6634500385
 C         1.5893970080        4.6669475181        5.7097558351
 C         2.2848754214        3.9340659231        4.5012758653
 C         3.8999124048        3.8133294778        4.4408025271
 C         4.2491662522        2.4700520058        3.7623565368
 C         5.7078648563        2.1621302403        3.4712940877
 C         4.3960280403        5.1132915041        3.6276494703
 C         4.4575111510        3.6244428781        5.8955684156
 O         1.4733976493        3.2673676588        3.8173184961
 O         3.4067044618        1.6010023483        3.5476751353
 C         5.8815318712        1.2583772229        2.1910906167
 C         5.3554371667        1.9373500079        0.9022906705
 C         5.2677728901        1.0477601228       -0.4207057509
 C         3.9208062992        0.5248430843       -0.5911560767
 C         3.7291716953       -0.4454826552       -1.7528078159
 O         5.0777342487        3.1388614808        0.7487418575
 O         3.0120435013        0.8408642382        0.1506568264
 C         5.5120088154        1.9095784753       -1.6998931905
 C         6.4129757660       -0.0203611620       -0.2583178571
 C         2.4222538891       -1.2363653215       -1.9318617780
 C         2.5434891224       -2.2131026413       -3.0375492237
 C         1.2187731791       -3.0782367019       -3.4486313671
 C         0.4250751617       -2.2532711454       -4.5454155820
 C         0.0499575434       -3.0125641227       -5.7963505369
 C         1.7702431904       -4.3975595980       -3.9766658701
 C         0.2582873495       -3.2299366028       -2.2771172012
 O         3.6151649456       -2.2412323619       -3.6961396198
 O         0.0599506659       -1.1275036701       -4.2480776208
 C        -1.4621573955       -3.1021882731       -5.7070211625
 C        -2.1719453843       -3.4279096125       -7.1052682862
 C        -3.6995224899       -3.9809247976       -6.9037605923
 C        -3.4657465622       -5.4842344671       -6.6537328380
 C        -2.7195184872       -6.3168786149       -7.7346477066
 O        -1.7067777020       -3.3049347129       -8.2125832310
 O        -3.8240480128       -5.9827739554       -5.6099519871
 C        -4.4527396643       -3.1850979121       -5.7705789679
 C        -4.4920270319       -3.9725372801       -8.1789255589
 H        -2.6565166831       -8.2575790767        0.4905409718
 H        -2.0055733044       -8.6416595195       -1.2342032592
 H        -2.2737840196       -7.0276258740       -0.6391185840
 H        -3.2142245832       -4.6271749840       -0.1218081293
 H        -4.5203078017       -4.0305689567       -1.0056333661
 H        -3.3232582695       -6.6755373367       -3.0052049293
 H        -3.2084727902       -5.2590128551       -2.0535094298
 H        -4.5033232968       -5.4060125499       -3.3392935666
 H        -6.9002625497       -6.9383407921       -1.3573770116
 H        -6.4372795091       -6.1462749116       -2.8256431385
 H        -6.3704924093       -7.8618269705       -2.5948494271
 H        -5.5914455275       -3.5856661460        1.3868387387
 H        -3.9985159258       -4.2265643322        2.0107747214
 H        -1.3906758299       -0.0258209629        2.5995418617
 H        -2.1995086749       -0.1872205085        1.0404108796
 H        -5.5324391669       -0.9870879690        4.2315848226
 H        -5.8325146100       -2.6013853211        3.5120939185
 H        -6.2210917258       -1.2695654828        2.7019873591
 H        -3.2055779926       -3.2730824628        3.5359257850
 H        -1.9337994154       -2.2252176134        3.4134415306
 H        -3.0511847007       -1.9208009620        4.6395007348
 H        -2.1555107482        2.3153664526        2.7547029393
 H        -2.9233793596        2.2227623712        1.2403450551
 H         0.5948114809        6.5482768909       -0.4870902495
 H        -1.1591417029        6.1451112508       -0.5457328206
 H         1.1040369354        2.6821268849       -1.4041008272
 H        -0.3664667275        3.2301676353       -2.4045701063
 H        -0.3673622717        1.8072087281       -1.4098921353
 H        -2.7986752359        3.2239356007       -0.7392848463
 H        -2.4943364809        4.4727430524        0.4599605341
 H        -2.0805079965        4.8036369140       -1.2581328822
 H         0.5916241867        7.5477727274        1.6976035832
 H        -1.0486448788        7.9634990077        1.1144501161
 H        -0.5156795597        5.2668838052        6.1135862462
 H        -0.3090475404        4.4974910236        4.6508981603
 H        -0.3087077810        9.1013396577        3.0602765506
 H        -0.9797469131        9.1509269956        4.6792135297
 H        -2.0348268245        9.0002340938        3.3401978582
 H        -3.2117462229        6.8625177925        3.9815288484
 H        -2.4477504244        5.7120633221        5.1140528853
 H        -2.3931662656        7.3652299834        5.5568580926
 H         1.4978949185        4.0210707724        6.5490779539
 H         2.2461890115        5.4621823950        6.0683402770
 H         6.3184201348        3.0794660467        3.2892819297
 H         6.0365074431        1.6694844964        4.3666007616
 H         5.4697369633        5.2160329630        3.5972929462
 H         3.8583168844        5.8968165241        4.1160443920
 H         4.0331712086        4.9772121187        2.5783202053
 H         5.3225511646        2.9409603053        5.8727375823
 H         4.6427826692        4.6339896007        6.3273819317
 H         3.6431205243        3.1824674980        6.4279269191
 H         6.9159162190        1.0388365286        1.9859519081
 H         5.3761336756        0.2590720663        2.2405833712
 H         3.8756418359        0.1741080689       -2.6845425542
 H         4.5117033332       -1.1547020137       -1.8203752676
 H         4.6762238120        2.6181346236       -1.7891772009
 H         5.4861650638        1.1973620872       -2.5988931559
 H         6.4633386254        2.4063391717       -1.6106006471
 H         6.4008235531       -0.7405919881       -1.1358044811
 H         7.2672792816        0.6082769737       -0.3149661324
 H         6.4447005355       -0.5360525654        0.7215509018
 H         1.5508908610       -0.7111194225       -2.0263757104
 H         2.2036560114       -1.6409364464       -0.9328831684
 H         0.3780656408       -2.5285923361       -6.6631675153
 H         0.5430973935       -3.9743519298       -5.9977547772
 H         2.6074938925       -4.2580940865       -4.7367844232
 H         1.0716636112       -4.9989215800       -4.4923268146
 H         2.1427219697       -5.0598291596       -3.2531991646
 H        -0.0875664908       -2.2844340014       -1.9797079766
 H        -0.6735454186       -3.8025902167       -2.6080813236
 H         0.6164203237       -3.5965019124       -1.3141188680
 H        -1.7023859629       -3.9125136679       -5.0124279645
 H        -1.8813984416       -2.2218290750       -5.2630727753
 H        -3.3797722543       -6.6379622052       -8.5583086091
 H        -1.8556799992       -5.7507753481       -8.1074572548
 H        -2.3481610739       -7.1611363145       -7.2075285552
 H        -4.9046882074       -2.2608939390       -6.0246482001
 H        -3.9228997917       -2.9693173700       -4.8723744277
 H        -5.2520017809       -3.8438730578       -5.4531350870
 H        -5.2997671829       -4.5932749825       -8.1297863491
 H        -4.8825718667       -2.9858356506       -8.3061014590
 H        -3.8346861987       -4.1077345195       -9.0080274686
 Na        2.3635785252        2.4696101860        1.5887605061
