155

 C        -2.3225515794       -7.6842554729       -0.1324055966
 C        -3.3992912209       -7.7941764223       -1.2864312208
 C        -4.4557689675       -6.5822967620       -1.4599235832
 C        -4.5737163498       -5.6213385802       -0.1641987253
 C        -3.7688912517       -4.3012514765       -0.0271336393
 C        -4.1943982446       -5.8180677091       -2.7198088977
 C        -5.9058024352       -7.2269260080       -1.6198673219
 O        -3.5124490926       -8.7563244822       -1.9913002704
 O        -5.2890841836       -5.9780717062        0.7485496220
 C        -4.2569938284       -3.5387573320        1.1878289049
 C        -3.5703374109       -2.2634323094        1.3918688230
 C        -3.7328326592       -1.3949282374        2.8515791000
 C        -3.5147900620        0.1022467212        2.4175570049
 C        -2.0981219354        0.5503155572        2.1349000922
 O        -2.7509696248       -1.7933428469        0.6362492993
 O        -4.3983548848        0.9411484247        2.5105343927
 C        -5.1200147024       -1.5554739275        3.5170672861
 C        -2.6008531303       -1.6468965377        3.8806891185
 C        -1.9259043775        2.0508415257        2.0117086264
 C        -0.7190585735        2.3616249127        1.0572011186
 C        -0.7235918716        3.4289959888       -0.1352273508
 C         0.0060327889        4.6916588038        0.4533583836
 C        -0.5618010964        6.1100845982        0.2172188042
 C         0.1019646428        2.7614894029       -1.2686567983
 C        -2.1967864641        3.6607677154       -0.6315397076
 O         0.2351620923        1.6722467686        1.2730642908
 O         1.1042350295        4.5922751011        0.9340165327
 C        -0.2397162596        6.9850488904        1.3912338473
 C        -0.9923167523        6.4003557107        2.6312000319
 C        -0.9433395803        7.0408419485        4.1022379563
 C         0.4288524650        6.4327896004        4.7393222002
 C         0.3913082012        4.9837542143        5.3902024820
 O        -1.5082379199        5.3455514610        2.4136063417
 O         1.4621415727        7.0465370473        4.4321182916
 C        -0.8425588132        8.5391946968        4.0089684960
 C        -2.1215300725        6.6061237799        4.9526757666
 C         1.7969849953        4.5327984271        5.6754989910
 C         2.3117634141        3.6681734902        4.4805235764
 C         3.8398284138        3.6343901373        4.1415627971
 C         4.3612649158        2.3037194588        3.4832751387
 C         5.9569575442        2.0997055127        3.4932890764
 C         3.8323161373        4.7686597822        3.0823788854
 C         4.7328485041        3.9026488683        5.4278924769
 O         1.5396852585        3.2275793248        3.6610241243
 O         3.6717901885        1.3897065159        3.1624445016
 C         6.2877914098        1.4042792839        2.1388969996
 C         5.4145999116        1.7894673841        0.9718903895
 C         5.4342829601        0.9496706185       -0.4034744326
 C         3.8314543930        0.4975017939       -0.7201407537
 C         3.5190723194       -0.3816039451       -2.0062851664
 O         4.5892539241        2.7240162605        1.0046425163
 O         2.9242427454        0.9208047580       -0.0353687423
 C         5.8146198138        1.9942649035       -1.4587564082
 C         6.2543149965       -0.3664405991       -0.5238771974
 C         2.2267092299       -1.2244081951       -1.9435131482
 C         2.3792691121       -2.3487253066       -3.0443927886
 C         1.1280800773       -3.2151164203       -3.5296570761
 C         0.4357682578       -2.3516764890       -4.5979241420
 C        -0.2392776073       -3.0424735702       -5.7700202500
 C         1.5478264484       -4.5674413181       -4.0747697272
 C         0.0898517477       -3.3822435301       -2.2780942712
 O         3.3713080174       -2.5280398929       -3.6482679384
 O         0.4994402945       -1.1720235709       -4.4156748536
 C        -1.8495023745       -3.0545953443       -5.6144231086
 C        -2.6779832907       -3.3633616484       -6.9676489131
 C        -4.0187832551       -4.0576117326       -6.8189745046
 C        -3.9562402712       -5.5966766269       -6.7361799342
 C        -3.1713817104       -6.3103307966       -7.8909570408
 O        -2.1935024903       -3.0450232419       -8.0070561839
 O        -4.4572458667       -6.3094045022       -5.9002470192
 C        -4.8270994193       -3.5182929003       -5.5692736544
 C        -4.8379932120       -3.5921047114       -8.1444650773
 H        -2.6889285355       -8.3455781399        0.6688023868
 H        -1.3478776229       -8.0216779912       -0.5377842233
 H        -2.1320031629       -6.6367785617        0.1538841890
 H        -2.7387741539       -4.3525777023       -0.1381293603
 H        -3.9641952473       -3.7869515670       -0.9842198296
 H        -4.8797801543       -6.3095008365       -3.4308288339
 H        -3.2168995861       -5.9162954181       -3.0985600982
 H        -4.5343157155       -4.7459041956       -2.5765785766
 H        -6.1317706494       -8.1421175367       -1.0384524532
 H        -6.6787248577       -6.5812593763       -1.4656913600
 H        -6.1716110192       -7.4217387000       -2.6046759865
 H        -5.3717279110       -3.3945424027        1.2009326747
 H        -4.1509560922       -4.0362701316        2.1654544529
 H        -1.4885948970        0.2840554948        3.0092743076
 H        -1.6392618808        0.0821254418        1.2853178140
 H        -5.3457422464       -0.7669551140        4.2645014381
 H        -5.3267565034       -2.5031059426        4.0031297848
 H        -5.9255353210       -1.7041953497        2.7967040221
 H        -2.8148394522       -2.6068328373        4.3841939372
 H        -1.5611144166       -1.7474595600        3.4543328155
 H        -2.4809081923       -0.8713763822        4.6657206930
 H        -1.5451912910        2.5213409883        2.8545552538
 H        -2.7580871403        2.5764624242        1.6948352954
 H        -0.2229163391        6.4344250493       -0.7736923362
 H        -1.7112199574        6.0908775277        0.1062274270
 H         0.7250004658        1.9097297473       -0.8254572055
 H         0.8283210312        3.3382276868       -1.9393891015
 H        -0.4897721158        2.2140710473       -1.9724420399
 H        -2.6626554807        2.7315328386       -1.0448116283
 H        -2.8280851520        3.9556457795        0.1914644123
 H        -2.3030061401        4.3190112414       -1.4901986331
 H         0.8691929439        6.9517932462        1.6601904668
 H        -0.4970642693        8.0818900741        1.2724723221
 H        -0.1877810272        5.1018652217        6.2889630745
 H        -0.2102235639        4.3193850439        4.7271028833
 H         0.1518360274        8.7818241423        3.7865253438
 H        -1.3262764255        9.0301256365        4.8499739493
 H        -1.2639861258        8.9187545626        3.0920236909
 H        -2.8882324490        7.2780250486        4.7958909621
 H        -2.4596925313        5.6237739523        4.6526430463
 H        -1.8211609830        6.6269568113        6.0168885756
 H         1.9255537978        4.0310061965        6.6528712720
 H         2.4457293773        5.4410455524        5.8376641230
 H         6.5932939817        2.9932289940        3.7599966341
 H         6.1167064789        1.2659002937        4.1800675642
 H         4.8348946178        5.0013797094        2.6615078819
 H         3.3780597232        5.5412619031        3.6386085238
 H         3.3516078172        4.4567245896        2.2441838135
 H         5.7586805088        4.1965091751        5.1632124502
 H         4.4178470614        4.7646591479        5.9054996453
 H         4.7024855544        3.0278282131        5.9540154053
 H         7.3108863144        1.4629298553        1.8398364921
 H         6.1315273483        0.3417317875        2.2802949339
 H         3.4030454204        0.2332281237       -2.9601548031
 H         4.3472221831       -0.9613573346       -2.3671318246
 H         5.1169872583        2.8410226731       -1.3187795518
 H         5.6558899910        1.5210039964       -2.4284975857
 H         6.8587895095        2.3119153043       -1.3562296576
 H         6.3643589291       -0.7578400042       -1.6036693238
 H         7.2991872010       -0.1626651876       -0.0908767039
 H         5.7700051151       -1.0232248556        0.1146206861
 H         1.4815652750       -0.4725055149       -2.0855078471
 H         1.9888199712       -1.7414767756       -0.9506210570
 H        -0.0100828963       -2.4446256628       -6.6236764109
 H         0.2183057555       -4.0559270097       -5.9272699081
 H         2.1506219576       -4.6629787917       -5.0175109349
 H         0.7402087380       -5.2271595495       -4.3667648711
 H         2.1665199072       -5.0254837071       -3.3175857424
 H        -0.4062870327       -2.5496643121       -1.9383813252
 H        -0.7267291983       -4.1028112225       -2.5541920990
 H         0.6247077870       -3.7385953732       -1.3598656998
 H        -2.0730431036       -3.8804965336       -4.8978988212
 H        -2.0328715746       -2.0999858214       -5.1047703239
 H        -3.1038525596       -5.6402083359       -8.6959425188
 H        -2.1552014721       -6.2931189674       -7.5422088106
 H        -3.4921490790       -7.3411105220       -7.9596325135
 H        -4.6685282275       -2.5389491167       -5.1844776745
 H        -4.8870901699       -4.2750602619       -4.7491217297
 H        -5.9126286852       -3.5932257570       -5.7340697749
 H        -5.8784905214       -3.8192722354       -8.0810755290
 H        -4.7468850017       -2.4957909808       -8.1370342312
 H        -4.4167424786       -3.9426610251       -9.1586763830
 Na        2.3508715453        2.6250489105        1.4002221793
