155

 C        -2.1390113047       -7.5090857619        0.5051165182
 C        -2.7299276790       -7.2276206352       -0.9822392085
 C        -4.0369569419       -6.3867133541       -1.1179119612
 C        -4.2748023384       -5.4579625544        0.1582796353
 C        -4.1671458250       -3.9419238232       -0.0272421575
 C        -4.0116444743       -5.7435922409       -2.5092657412
 C        -5.2561270575       -7.3994383632       -1.1490522000
 O        -2.3489713916       -7.8027010525       -1.9903227566
 O        -4.7636376962       -5.9884118063        1.1391025149
 C        -4.3862107678       -3.1047983993        1.2900148351
 C        -3.3504512788       -2.0180006426        1.6593234927
 C        -3.5574182370       -1.2890262558        3.0092843912
 C        -3.5893992615        0.2345911317        2.6530630196
 C        -2.2337473704        1.0290699350        2.5431095096
 O        -2.3292700189       -1.7899589913        1.0391061390
 O        -4.6564468176        0.7394697140        2.3768559867
 C        -4.8873509322       -1.6325051917        3.7506796865
 C        -2.4421639064       -1.6846956651        3.9260388551
 C        -2.3066001511        1.9421554203        1.3257721065
 C        -0.9390006568        2.3740082973        0.8478658457
 C        -0.6806316866        3.4336201639       -0.2878040986
 C         0.0043467361        4.6671326008        0.3272878963
 C        -0.7994821113        5.9460679050        0.4592390784
 C        -0.0332028802        2.6216509776       -1.4297802578
 C        -2.0679127759        3.8253487867       -0.9117692588
 O         0.0349792113        1.8680102557        1.3645809154
 O         1.1553118568        4.6942071730        0.7292640239
 C        -0.3622073610        6.6693806791        1.7800659744
 C        -1.0441660928        6.0937936855        3.0134625263
 C        -0.6663446639        6.7567843781        4.4379327016
 C         0.6530633024        5.9984662502        4.6554457440
 C         0.4976310853        4.6802456302        5.4175054975
 O        -1.8499540905        5.1847699580        2.9135228156
 O         1.7293105094        6.3775274425        4.2542724307
 C        -0.4212797801        8.3027445832        4.3834457578
 C        -1.7934122434        6.4907285859        5.3888419203
 C         1.8915611985        4.0713519854        5.6257644337
 C         2.6087907834        3.9642255200        4.2917090975
 C         4.1612272348        3.8734071484        4.1266321503
 C         4.4059861977        2.3653053043        3.6030593703
 C         5.7964354326        2.1899862561        2.8253811189
 C         4.5182749617        4.9766027855        3.0369198923
 C         5.0642579477        4.1916263033        5.3383176248
 O         1.9545060149        3.6614738347        3.2867532064
 O         3.6185224872        1.5164387685        3.8850931536
 C         5.8569696012        0.9970259049        1.7575458352
 C         5.2741263674        1.6168846491        0.4634043379
 C         5.4079038546        0.7433912118       -0.8388910712
 C         3.8514082301        0.2790231546       -1.2096136593
 C         3.7612180256       -0.6987123370       -2.3780152370
 O         4.7336736009        2.7246807734        0.5189203964
 O         2.8430405963        0.7228120407       -0.6649241513
 C         6.1568240448        1.6804036670       -1.9425930340
 C         6.1715627575       -0.5042231706       -0.5983447666
 C         2.3212762881       -1.1459298933       -2.6891394557
 C         2.1783256059       -2.5519777079       -3.3083976221
 C         0.8091593745       -3.2948410200       -3.5202137065
 C        -0.0241206661       -2.3023360884       -4.5609892801
 C        -0.7221962339       -2.9359046886       -5.7458245086
 C         1.0503246736       -4.7705926864       -3.9271937950
 C        -0.0164669587       -3.3587443306       -2.2617316912
 O         3.2024748469       -3.2188015518       -3.5818189566
 O        -0.0190318826       -1.1111555462       -4.4261445969
 C        -2.2488595940       -3.0219010181       -5.4055273785
 C        -3.0192337377       -3.3306781531       -6.7202263699
 C        -4.4647817167       -3.7737985141       -6.6795266285
 C        -4.4228814034       -5.3297141265       -6.9609599933
 C        -3.9177354929       -6.0366285971       -8.2821265381
 O        -2.4399638747       -3.2429178090       -7.7793212490
 O        -4.9157502468       -6.0611819358       -6.1705903384
 C        -5.2410472174       -3.4330947115       -5.3679266722
 C        -5.1548568963       -3.1503767285       -7.9856145496
 H        -1.6666612363       -6.5380900133        0.8021069351
 H        -2.9289479829       -7.5506179187        1.2801250393
 H        -1.4166576759       -8.3155065625        0.5311386835
 H        -3.2210528597       -3.7622767863       -0.5020323022
 H        -5.0083668503       -3.6407923001       -0.6881420195
 H        -4.1783260283       -6.4530203359       -3.2505482839
 H        -2.9993439223       -5.3102403284       -2.7174421928
 H        -4.7544833709       -4.9258966004       -2.5442336471
 H        -5.3740221748       -8.1503385725       -0.4283034802
 H        -6.2290511465       -6.8403342065       -1.0430407658
 H        -5.2217268504       -7.9865211845       -2.1078393266
 H        -5.3602988712       -2.6409077277        1.3978210038
 H        -4.4770896983       -3.7945203725        2.1471422950
 H        -2.1235210564        1.5135549172        3.5021767035
 H        -1.4792289024        0.2537700751        2.4445949091
 H        -5.1241418447       -0.9206777851        4.6028803982
 H        -4.8342706852       -2.6344019617        4.3162744427
 H        -5.8126216105       -1.5453888590        3.1862831712
 H        -2.5880204664       -2.7485773179        4.2334642181
 H        -1.5127357469       -1.5185749509        3.4235167312
 H        -2.5047514451       -1.1081383953        4.8916605441
 H        -2.8778826166        2.8766098128        1.4711309095
 H        -2.8695443376        1.5097605473        0.5152188648
 H        -0.4564990414        6.5338747036       -0.4726383631
 H        -1.8993842718        5.8832808061        0.3852349578
 H         1.0497568214        2.3530310183       -1.2638777135
 H         0.1311355795        3.1869955279       -2.3719879663
 H        -0.5824853653        1.6779361137       -1.6708998199
 H        -2.5183191826        2.9436848575       -1.4130379328
 H        -2.8060115553        4.2222814948       -0.2227606297
 H        -2.0024082337        4.6933451401       -1.6092792924
 H         0.7056706054        6.8368638960        1.9533760527
 H        -0.8779579469        7.6105256626        1.7787730633
 H         0.0835241929        4.9577378194        6.3785397568
 H        -0.1168120782        3.9960534361        4.8877128134
 H         0.6324377161        8.5552396949        4.1857477035
 H        -0.6436384597        8.8461203241        5.2413515765
 H        -1.0351380839        8.7142307552        3.6130062926
 H        -2.5008670611        7.2856151514        5.2550143040
 H        -2.2015056788        5.5946714275        4.9590103957
 H        -1.5496163757        6.5075378020        6.4094050248
 H         1.7819867638        3.1205424504        6.1109675506
 H         2.4955872311        4.6715697960        6.2778358698
 H         5.9905603141        3.1466082192        2.3762995051
 H         6.5195919191        2.1898018913        3.6427236186
 H         5.5124782240        5.3143576449        3.1364612277
 H         3.8662629368        5.8626393071        3.2413493191
 H         4.2265790981        4.5622232644        2.0412585837
 H         6.1075794610        4.0555395739        5.2166545871
 H         4.7289593393        5.2692929593        5.5170292866
 H         4.6834612509        3.7482559595        6.2664440115
 H         6.9129971425        0.7947010074        1.4789672247
 H         5.3935427645        0.0579701737        2.1453545885
 H         4.1607204924       -0.3222591413       -3.2727423205
 H         4.4310639596       -1.5914835365       -2.2532556299
 H         5.7917070095        2.6972531591       -1.8875500658
 H         6.1641635647        1.1489137422       -2.9741024283
 H         7.1688636957        1.6897316928       -1.5808327717
 H         6.3326138479       -1.0858021647       -1.5437561478
 H         7.1009198253       -0.2845448008       -0.1451526864
 H         5.6058589452       -1.1616805112        0.0921402471
 H         1.9302260330       -0.3904622568       -3.3318638991
 H         1.7650769978       -1.1848325248       -1.7932737107
 H        -0.7337033232       -2.1898419362       -6.5549137518
 H        -0.3840990190       -3.9496818613       -5.9495726803
 H         1.6286458032       -4.9782106931       -4.8615576248
 H         0.1699519550       -5.2881707460       -4.0621874027
 H         1.5249263529       -5.3732061748       -3.2088250613
 H        -0.3773003829       -2.3666702097       -1.9345502598
 H        -0.8364212645       -4.1004574774       -2.2095570621
 H         0.6054486945       -3.7979083729       -1.5097694493
 H        -2.4003555606       -3.7582800897       -4.6482248115
 H        -2.6009115460       -2.0693381636       -5.0367543251
 H        -2.8477767339       -5.8937131494       -8.2196997045
 H        -4.0225024019       -7.0980855176       -8.2356297762
 H        -4.4376986082       -5.6141650379       -9.0801781322
 H        -5.9387224204       -2.6156898719       -5.5417397983
 H        -4.6193395205       -3.1263255488       -4.6067013212
 H        -5.9817808534       -4.1330602492       -4.9989102218
 H        -6.1976198294       -3.3556302651       -8.0883994052
 H        -4.9820093370       -2.0681113875       -8.0266523554
 H        -4.7441778247       -3.6067676655       -8.8482685473
 Na        2.4092575398        2.2968884962        1.1845026411
