155

 C        -1.2558487884       -7.7861513125        0.1114075810
 C        -1.7948496444       -6.3809150619       -0.2356768580
 C        -3.3076481953       -6.2074362770       -0.5808597909
 C        -3.9509891160       -5.1355949207        0.6224195810
 C        -4.3545741962       -3.6838058081        0.1433720380
 C        -3.2627472305       -5.8235883332       -2.0359495280
 C        -4.2401101470       -7.3647097963       -0.4072944680
 O        -1.0715105232       -5.4266079962       -0.0129311235
 O        -3.9737671998       -5.5124719518        1.7672337220
 C        -4.7192701752       -2.8262250823        1.3676432513
 C        -3.4436707892       -2.4082200113        2.1544861308
 C        -3.6061969045       -1.1757346250        3.2262951178
 C        -3.4922875048        0.1197164449        2.3236135254
 C        -2.0701258127        0.3620366818        1.8818249267
 O        -2.3710792267       -2.9545438239        1.9916232145
 O        -4.4340360401        0.8336889665        2.0126348735
 C        -4.9088902501       -1.1064286344        4.1227109602
 C        -2.3539560434       -1.3289786119        4.2559837476
 C        -2.0287498217        1.6054206649        1.0186587145
 C        -0.6970475074        2.1597665261        0.5022240491
 C        -0.8052869833        3.2445771244       -0.5734182919
 C        -0.1080793077        4.5330007404        0.0769606457
 C        -0.9519992648        5.7661592189        0.6561012883
 C         0.0759024757        2.8092602415       -1.7405825285
 C        -2.2847064031        3.5812117517       -0.9908535101
 O         0.3585631888        1.6451657316        0.7856784180
 O         1.0454397838        4.3775328330        0.3767584700
 C        -0.2103196847        6.3144450179        1.8801491088
 C        -0.8367249391        5.7630991177        3.1640452559
 C        -0.3950418320        6.4568878508        4.5241514695
 C         1.0273006301        5.9168167602        4.9584020468
 C         0.9986828681        4.4550137453        5.4115573788
 O        -1.5521362858        4.7561485144        3.1218145151
 O         2.0108986843        6.5835572570        4.8896412684
 C        -0.2349951647        8.0103773794        4.4256156720
 C        -1.5503810053        6.1211448240        5.5711652275
 C         2.4000469636        3.8208007049        5.3744602770
 C         2.8858663862        3.4260329532        4.0145578216
 C         4.4494052666        3.3477782213        3.6686750711
 C         4.7568785624        2.0763830133        2.7925172699
 C         6.3011195651        2.0713028474        2.2713257654
 C         4.6689838566        4.6679459806        2.8452962565
 C         5.1940940771        3.1366565516        4.9959889538
 O         2.1247965768        3.0386009222        3.1936873651
 O         4.0113994152        1.1645501902        2.5220561603
 C         6.4298926165        1.3583841091        0.9682819872
 C         5.3764132406        1.7338818310       -0.0863085475
 C         5.0470758005        0.6333754329       -1.2552471207
 C         3.5112085851        0.1235233046       -1.2450023050
 C         3.2473819351       -1.1614617237       -1.9814606382
 O         4.8794923196        2.8348035485       -0.1429505200
 O         2.6837806198        0.8138073748       -0.6371234924
 C         5.2563152375        1.4339938335       -2.6243080043
 C         5.9503294534       -0.5826761385       -1.2133934325
 C         1.7856876100       -1.4074745490       -2.1866025967
 C         1.5706866580       -2.6491104974       -3.1030154360
 C         0.1411068131       -3.1912581372       -3.3068304573
 C        -0.5091633487       -2.1406201596       -4.2993325647
 C        -1.2422659368       -2.5680717296       -5.5585904993
 C         0.1131218361       -4.6066382974       -3.8316021541
 C        -0.7048065277       -2.9604356530       -1.9254371413
 O         2.5729184734       -3.1338166548       -3.6881951224
 O        -0.4579383374       -0.9303067933       -4.0206274969
 C        -2.6845476575       -2.9921462804       -5.2335821265
 C        -3.4823894386       -3.0321401436       -6.6033840560
 C        -5.0824404456       -3.3056686843       -6.7494884750
 C        -5.1999056346       -4.8994221624       -6.8565543015
 C        -5.1661695384       -5.4826019204       -8.2807742453
 O        -2.8810501691       -3.1027119390       -7.6539551717
 O        -5.2306777502       -5.6538886838       -5.9157682321
 C        -5.9544898979       -2.8420212969       -5.6048320870
 C        -5.4490530515       -2.5787634868       -8.0324123374
 H        -1.9665711211       -8.6360875942        0.2954543662
 H        -0.4604050858       -8.0207177811       -0.6111771242
 H        -0.5652039211       -7.5346538748        0.9082157468
 H        -3.3749921602       -3.2934869026       -0.3928262228
 H        -5.2432237705       -3.7144020645       -0.4694557551
 H        -2.2470461688       -5.6081987210       -2.3893318160
 H        -3.8885661271       -4.9480477192       -2.3727800959
 H        -3.5543039124       -6.6778164124       -2.5800394179
 H        -4.4961118744       -7.4833559557        0.6250027409
 H        -5.2189228295       -7.3271022839       -0.9927755027
 H        -3.7605337563       -8.3152675263       -0.8392350351
 H        -5.1466142023       -1.8912627438        1.0096556041
 H        -5.3914767429       -3.4441251211        1.9195809169
 H        -1.5124478001        0.5946850316        2.7705402748
 H        -1.6037495641       -0.4995679660        1.4296675870
 H        -4.5745130484       -0.4625752597        4.9571677976
 H        -5.2287307795       -2.1630363699        4.3637012983
 H        -5.7569193199       -0.6942243320        3.5528139884
 H        -2.6781572406       -1.8511013690        5.1793118031
 H        -1.6821705615       -1.9028868922        3.6057188467
 H        -1.9588375055       -0.3460519609        4.4412565730
 H        -2.4956113486        2.4433789900        1.5352100877
 H        -2.5542534878        1.2796545059        0.0487978379
 H        -0.9284556133        6.5038919270       -0.2185611881
 H        -1.9880010112        5.5160178614        0.9011342829
 H         1.0278177831        2.3348649438       -1.4653840537
 H         0.3030944521        3.5953161632       -2.4814322276
 H        -0.3303357017        1.9583945653       -2.3912609276
 H        -2.8972779383        2.7717358227       -1.3093278996
 H        -2.7436774648        3.9742859322       -0.0657613604
 H        -2.2648769232        4.3036707328       -1.8036995412
 H         0.7804953761        5.9902117005        1.8399072788
 H        -0.1403998606        7.4177919971        1.9779841489
 H         0.4552959070        4.2663679332        6.3133458640
 H         0.4260295798        3.9867644485        4.6176041858
 H         0.7623969713        8.3684067818        4.0872531635
 H        -0.4193781126        8.3736400984        5.4126859019
 H        -0.8637509973        8.5773679314        3.7726462145
 H        -2.4595372087        6.5593259975        5.1096456585
 H        -1.6164853708        5.0603929016        5.5786620353
 H        -1.3439120844        6.4797130381        6.5523833048
 H         2.4143460208        2.8992194564        5.9450751474
 H         3.0719055996        4.4938964794        5.8170973633
 H         6.6872403416        3.0360038624        2.0367400328
 H         6.8493414677        1.6260566654        3.1000736042
 H         5.3123781069        4.6497582355        2.0358477679
 H         4.8258439880        5.5314606383        3.4666346334
 H         3.7139480443        4.7788680106        2.2343432991
 H         6.1881250604        2.8797974001        5.0197589538
 H         5.3442634518        4.0980441279        5.5217395412
 H         4.6858042196        2.3486275226        5.5612547027
 H         7.4238196530        1.4338497630        0.4196968384
 H         6.3467500615        0.2770161761        1.0964352120
 H         3.6733933264       -1.1041367808       -2.9694931567
 H         3.6258829459       -2.0083065338       -1.4911893922
 H         4.7048905189        2.3470001147       -2.6683098096
 H         4.9603551145        0.7943939588       -3.4986419815
 H         6.3439207147        1.5495564529       -2.7161802641
 H         5.8158561420       -1.0684528287       -2.2134733250
 H         6.9561143896       -0.4003098339       -1.1431746791
 H         5.7781426019       -1.3342340451       -0.4519723864
 H         1.2926262193       -0.5383135459       -2.6395874705
 H         1.2401570423       -1.5081563120       -1.2909726363
 H        -1.0536281809       -1.7970421655       -6.3643685100
 H        -0.7522723941       -3.4206775319       -6.0155302796
 H         0.8289366360       -4.8417521649       -4.7123819847
 H        -0.7622995364       -4.9064667705       -4.3191913629
 H         0.4195510865       -5.3307585891       -3.0991090248
 H        -0.6300340333       -2.0098249495       -1.3031618286
 H        -1.6784904817       -3.0629570741       -2.3204958803
 H        -0.5103846824       -3.7984269963       -1.2784965707
 H        -2.7909209298       -3.8498881050       -4.6049036464
 H        -3.2078736225       -2.2218277442       -4.6620423278
 H        -4.6034790429       -4.8273662764       -8.9093395004
 H        -5.2245060701       -6.5383007509       -8.1570709986
 H        -6.0985193323       -5.2157886042       -8.6967023929
 H        -5.8064649061       -1.7238745029       -5.5365148967
 H        -5.5939799243       -3.3647415437       -4.7477790922
 H        -7.0023953520       -3.1653300714       -5.7800123452
 H        -6.5222821869       -2.6692493947       -8.3257614201
 H        -5.2664968221       -1.4846672248       -7.9103512509
 H        -4.8807813441       -2.8817467838       -8.8880185282
 Na        2.4879652652        2.5440530902        0.8265857238
