155

 C        -0.5362854703       -7.1819254717       -0.2657895146
 C        -1.2640574428       -6.0724152537        0.4544811729
 C        -2.7566934042       -6.5387738536        0.8236121198
 C        -3.9805900687       -5.5832071115        1.2588388045
 C        -3.8895901933       -4.1972139083        0.7281707762
 C        -3.3816123625       -6.9428932456       -0.5844574197
 C        -2.8093472687       -7.7776393321        1.7586369490
 O        -0.8276739678       -4.9219866977        0.5234266063
 O        -4.8527412043       -5.9948246228        1.9989309940
 C        -4.3629078446       -3.2159572659        1.8250858308
 C        -3.2696492357       -2.3926375329        2.4945127871
 C        -3.6217456436       -1.0519664984        3.3839096986
 C        -3.5061828457       -0.0441310448        2.2226419447
 C        -2.1034102182        0.6049674402        1.9163003819
 O        -2.1168885429       -2.7260081964        2.4325392373
 O        -4.4997776036        0.1851387750        1.5640325766
 C        -5.1282178524       -1.1036990833        3.9961736550
 C        -2.5349161442       -0.9978458939        4.5512022867
 C        -2.2316549966        1.8858422876        1.0174062332
 C        -0.8690539676        2.2081346642        0.4317020133
 C        -0.6241534599        3.2128166050       -0.7750685115
 C         0.1798706664        4.4804320055       -0.1096731706
 C        -0.5760859931        5.7742371123        0.4239079003
 C         0.3602087699        2.6074124040       -1.8578278483
 C        -1.9409227880        3.5887211061       -1.4590317973
 O         0.0765606945        1.5843546897        0.8404737652
 O         1.3791209444        4.4221696529        0.0406987871
 C        -0.1813642134        6.3369165528        1.8270594709
 C        -0.5189271731        5.3361625481        2.9762735714
 C        -0.0150567815        5.7627927381        4.4021044127
 C         1.3549855258        5.1335848478        4.5047926554
 C         1.5886626758        3.8317894364        5.3160014658
 O        -0.9854654313        4.2553230793        2.8209845732
 O         2.2326812711        5.5632280909        3.7486966750
 C         0.1420610572        7.2818271726        4.5251958154
 C        -1.0279742702        5.2457958035        5.4917843342
 C         3.0655153800        3.3178502551        5.2872381326
 C         3.3639300011        2.9030820578        3.8398479421
 C         4.9043890764        2.9835781088        3.3004809474
 C         5.1230947520        2.0424084406        2.0980177288
 C         6.4240620758        2.0964526571        1.2637581878
 C         5.0788945792        4.4915528158        2.9008772509
 C         5.8561943021        2.3696359268        4.3655386276
 O         2.4287612851        2.5620692861        3.1061312067
 O         4.3778554815        1.1087094988        2.0396682113
 C         6.3336793341        1.2807159276       -0.0560039130
 C         5.1559273373        1.6505140580       -0.9583915561
 C         4.6597586600        0.7110249214       -2.0425203602
 C         3.3592941519       -0.1871240688       -1.6114039153
 C         3.0254904307       -1.4199412960       -2.4412257739
 O         4.4840349049        2.5823743052       -0.6432063388
 O         2.7079752940        0.2158153934       -0.7040386010
 C         4.2051834923        1.6120028094       -3.3112407296
 C         5.8588430607       -0.2002328948       -2.5550858060
 C         1.7360235051       -2.2399520641       -1.9784943243
 C         0.8093187796       -2.4390973660       -3.1360802306
 C        -0.7240664649       -2.3710303611       -2.8352224915
 C        -1.1488273435       -1.2062445407       -3.9188913388
 C        -1.6884932399       -1.7317239934       -5.2171759536
 C        -1.3888799232       -3.8053576455       -3.0120028318
 C        -1.2472657313       -1.8185800985       -1.3957236915
 O         1.2000868240       -2.6382037366       -4.2894432933
 O        -0.9681768348       -0.0567826668       -3.5905169746
 C        -3.2254979538       -1.7275312490       -5.2386313565
 C        -3.8094901928       -2.2462221788       -6.6225214457
 C        -5.3847829380       -2.6238101386       -6.6171096040
 C        -5.2569883479       -4.1389811147       -6.2934583922
 C        -4.8260602988       -5.1230930896       -7.4655958427
 O        -3.0473253619       -2.3721457150       -7.5457988972
 O        -5.5083697357       -4.5516746484       -5.1790795191
 C        -6.0748792987       -1.8822188419       -5.4039942350
 C        -6.0053565054       -2.3351619787       -7.9517500591
 H        -0.6109821914       -6.9228175150       -1.3139674755
 H         0.5177881748       -6.8975555194       -0.0204528567
 H        -0.8084819459       -8.2346972826       -0.1153441572
 H        -2.9338635069       -4.0177498901        0.2322018631
 H        -4.4574147562       -4.1852711888       -0.1515478864
 H        -3.8189025931       -6.1716861213       -1.1455185269
 H        -4.2698921938       -7.5607056000       -0.4682894926
 H        -2.6572998400       -7.4996686078       -1.1709837949
 H        -1.9639153780       -7.9342753807        2.3038023838
 H        -3.7501882459       -7.6675111237        2.3021014338
 H        -3.0250388265       -8.6570201313        1.1501434704
 H        -5.2861250558       -2.7009836211        1.4713447256
 H        -4.8024175629       -3.9013333589        2.6122999813
 H        -1.4930295930        0.7459407533        2.8603786361
 H        -1.6087731984       -0.2386032084        1.3285400212
 H        -5.1423703747       -0.1331950652        4.5240507893
 H        -5.1420967877       -1.8569177880        4.7680664623
 H        -5.8267703540       -1.0606867012        3.2015589500
 H        -2.3851551384       -2.0107366715        4.9045567205
 H        -1.6005799749       -0.8045183784        4.1124200282
 H        -2.9038591845       -0.2567295269        5.2746609686
 H        -2.6643017120        2.7477196893        1.5197597243
 H        -2.9398673211        1.7244068235        0.2541825850
 H        -0.7216857514        6.4742615237       -0.4324886930
 H        -1.5750707520        5.4235024032        0.5688551502
 H         1.2642856675        2.1954539272       -1.4598706402
 H         0.7520650364        3.1927109131       -2.6742400468
 H        -0.0476366248        1.7755712174       -2.3225904757
 H        -2.1393572766        2.7442534425       -2.1425715241
 H        -2.7481560183        3.6600006884       -0.7660506484
 H        -1.7261521301        4.4339506629       -2.1348384135
 H         0.8725848357        6.6138820888        1.8678896963
 H        -0.7536662667        7.2483689624        2.1555427876
 H         1.3184464000        4.1120764377        6.3694544245
 H         0.9110723371        3.0103618189        5.0399129955
 H         1.0522410969        7.5745788341        4.0417306848
 H         0.1475944967        7.6534076630        5.5378031290
 H        -0.6958415962        7.7631795346        4.0299357111
 H        -1.7291604550        6.0230525604        5.6022117563
 H        -1.5473307127        4.2957358672        5.3000428368
 H        -0.4823407682        5.1283538845        6.4118669038
 H         3.2582670742        2.4240732499        5.9773224541
 H         3.7277696749        4.1188738941        5.6302661672
 H         6.7440019052        3.1195684140        1.0595326807
 H         7.3466865248        1.6103622435        1.7728714736
 H         6.1993876592        4.6088605796        2.8950195773
 H         4.7398644371        5.1696176831        3.7390725117
 H         4.5468565784        4.8824316828        2.0761992312
 H         6.9752400973        2.5379817501        4.1401463315
 H         5.7112830775        2.8218373665        5.3652487260
 H         5.6559347368        1.3095319036        4.4441606120
 H         7.2562286536        1.4164637647       -0.6738182905
 H         6.3214921216        0.2873480359        0.2653310612
 H         3.1135554135       -1.1751418441       -3.5437255522
 H         3.9519689064       -2.1401004259       -2.3247973820
 H         3.5694272199        2.4883537309       -2.9907290620
 H         3.6551418305        1.0537456180       -4.1121753113
 H         5.1281354339        1.8973783453       -3.7934202399
 H         5.7232992328       -0.3272222837       -3.5747222090
 H         6.8208344144        0.4219838108       -2.4007780265
 H         5.9759626478       -1.1671523039       -1.9855654955
 H         1.2451920217       -1.5512081983       -1.2140981594
 H         2.1470484996       -3.1237496383       -1.5128250385
 H        -1.4713055919       -0.9322719942       -5.9064971210
 H        -1.2207630896       -2.6344338632       -5.5244042717
 H        -0.9942231334       -4.4220698080       -3.7465885245
 H        -2.5085720543       -3.8171779666       -2.7516966308
 H        -1.1046486276       -4.4151484836       -2.1039246409
 H        -0.9193280423       -0.8432277342       -1.3407900579
 H        -2.3956332025       -1.7763322816       -1.5458123666
 H        -0.8826122577       -2.4876737976       -0.6158266084
 H        -3.5170119658       -2.4799924982       -4.5184441349
 H        -3.5408667124       -0.7189199351       -4.9726060473
 H        -3.8447135903       -4.8004306749       -7.8115087282
 H        -4.5161395586       -6.1047323100       -7.1205800257
 H        -5.6811240909       -5.1536035117       -8.1104238150
 H        -6.2602963123       -2.6653055476       -4.7364320196
 H        -7.0642524991       -1.4758337720       -5.6471061518
 H        -5.3883900983       -1.1877505667       -4.9963820497
 H        -7.0375227032       -2.2323719026       -7.8091071114
 H        -5.7473533747       -1.4142119292       -8.3835956974
 H        -5.7546778968       -3.0657256823       -8.7019428966
 Na        2.4078125983        2.2124488402        0.6779192610
