155

 C        -1.6065797790       -8.5692367535        0.3755026857
 C        -1.5597572050       -7.1317320103        1.0688964392
 C        -1.3743791307       -6.8112975066        2.8002194844
 C        -1.7529944354       -5.2773487725        3.1836200954
 C        -2.9809354246       -4.5855174929        2.4525717230
 C        -2.2613926285       -7.8587387229        3.6373669708
 C         0.0423042206       -7.1022506563        3.3233098676
 O        -1.5548254331       -6.1808531729        0.3480861321
 O        -1.1737466266       -4.7475724572        4.1065790284
 C        -3.5994756517       -3.4581054598        3.3263478530
 C        -3.8650874672       -2.2050062789        2.5353255292
 C        -3.9462423144       -0.8153762146        3.2314663062
 C        -3.6872543211        0.2178716550        2.1110862586
 C        -2.3612232148        0.1319173226        1.3163610211
 O        -4.0399482643       -2.1860757358        1.3291611170
 O        -4.5536524697        1.0645312527        1.8656971631
 C        -5.4620747981       -0.7568820068        3.6591714595
 C        -3.1047351371       -0.6685029118        4.4345321869
 C        -2.1951101970        1.4849402352        0.5955957631
 C        -0.7557684373        1.9260094125        0.2694577483
 C        -0.5694883078        3.3003832896       -0.4710924926
 C         0.4757116095        4.0817038615        0.4099281781
 C        -0.0289394673        5.4764108355        0.9662994380
 C         0.0030123215        2.9270560262       -1.8557702856
 C        -1.9406026723        3.9188471240       -0.7431980430
 O         0.1964940946        1.1868458236        0.5842027699
 O         1.6242209092        3.7954794148        0.6452026904
 C         0.6953222645        5.8060659781        2.3131473590
 C         0.2642639185        4.7841466238        3.3440362740
 C         0.9551823852        4.8884533413        4.7509230683
 C         2.4357343269        4.5412367631        4.5995385241
 C         3.1659544919        3.2585289219        5.0344086582
 O        -0.4594917029        3.9161942487        3.0682137978
 O         3.1361768902        5.4142415540        4.0831304516
 C         0.8320376543        6.3081865468        5.3431016089
 C         0.2186516320        3.9150368398        5.6825104114
 C         4.5098171613        3.0666345164        4.2977235576
 C         4.3991888482        2.7893437605        2.7386741229
 C         5.7395642350        2.5039800815        1.9807639218
 C         5.3480613095        1.6683971430        0.7245206967
 C         6.2721539680        1.9629360437       -0.4324304422
 C         6.4775510976        3.8681794829        1.6962614773
 C         6.5346927364        1.5268329551        2.9131359503
 O         3.3520406716        2.7201835684        2.1851993676
 O         4.5177660533        0.7991402770        0.6681461751
 C         5.9335037835        1.0437713667       -1.5897249487
 C         4.5403231718        1.2338451081       -2.1263959166
 C         3.9691187274        0.0537067458       -3.1918254998
 C         2.5621963147       -0.3743766778       -2.5924379742
 C         2.0336993362       -1.8299704507       -2.9803426180
 O         3.8457208543        2.2332958114       -1.9331608237
 O         1.8751616009        0.2710143237       -1.8167923793
 C         3.6590239522        0.7292903177       -4.5799348585
 C         4.9505275560       -1.0881660658       -3.3178005141
 C         0.6092184054       -2.1683036634       -2.5749206455
 C        -0.4130626843       -1.8645462227       -3.6070603721
 C        -1.9626776949       -2.1063504177       -3.2477086306
 C        -2.4604057848       -0.7061176170       -2.8690660135
 C        -3.1054343363        0.1052079587       -4.0000376910
 C        -2.5597744246       -2.8580971589       -4.5364719980
 C        -2.0318958600       -3.0673903365       -2.0738468909
 O        -0.1819003569       -1.5728302047       -4.8027586058
 O        -2.1516473928       -0.2326881887       -1.7814377536
 C        -4.4545714949       -0.3992624638       -4.4670020613
 C        -4.5850123198       -0.7236532826       -5.9745334121
 C        -5.9583654836       -1.2391270802       -6.3990597009
 C        -5.6988837299       -2.7670325008       -5.9672884777
 C        -4.7955003423       -3.6152544503       -6.8821718317
 O        -3.6306397485       -0.7126770069       -6.7176868775
 O        -6.0752381591       -3.2609525093       -4.9427303581
 C        -7.1241679746       -0.7724193257       -5.4844975989
 C        -6.2589521111       -1.0213740796       -7.9156909403
 H        -2.5737460591       -9.0422539521        0.4785269550
 H        -1.3840430104       -8.3539089577       -0.7166330040
 H        -0.9280168442       -9.3310364802        0.7380290578
 H        -2.7568257913       -4.1631112851        1.5165600950
 H        -3.6910056312       -5.4412476852        2.1699241051
 H        -3.2328009253       -8.0433552596        3.2153980521
 H        -2.1201885272       -7.6037567652        4.7132693524
 H        -1.8717843253       -8.8226644042        3.6854626029
 H         0.7475233063       -6.2727329596        3.1059705105
 H         0.1060787508       -7.1637486035        4.4002914074
 H         0.4448417551       -7.9485411630        2.8492279293
 H        -4.5411733646       -3.8384715740        3.7205672873
 H        -3.0176513725       -3.1517938150        4.2561559485
 H        -1.4292085594       -0.1869269088        1.8820206966
 H        -2.5683236480       -0.6750880745        0.5353535505
 H        -5.6152446010       -0.0536885389        4.4721261311
 H        -5.8823259145       -1.7486318481        3.9966772858
 H        -6.1929912762       -0.4640288846        2.9372897969
 H        -3.5395880769       -1.0932888232        5.3494333050
 H        -2.0746212227       -0.9865841311        4.3609482087
 H        -2.8685913368        0.3509334579        4.7240970064
 H        -2.6052750099        2.3275836453        1.1759735137
 H        -2.6925197719        1.4330603589       -0.3378295892
 H         0.0082694376        6.2209048314        0.1540347018
 H        -1.1342427455        5.4332620374        1.0353301747
 H         1.0608799734        2.5201945073       -1.9197435901
 H         0.0323669030        3.7919964717       -2.5523031463
 H        -0.4990832199        2.1608484073       -2.4303236772
 H        -2.4370394176        3.3714452798       -1.5150539658
 H        -2.6022784737        4.0363149773        0.1268466213
 H        -1.9274878899        4.9390386330       -1.0453936008
 H         1.7974094936        5.9854430833        2.1722011211
 H         0.3714721008        6.7523463282        2.6748623231
 H         3.2731442939        3.2307677545        6.1343451943
 H         2.5471876309        2.4275213208        4.7901537774
 H         1.0299829359        7.1920180674        4.6453918979
 H         1.5096459956        6.3943621469        6.2160219663
 H        -0.2060260314        6.3521754887        5.6440069313
 H        -0.7551051802        4.4130373281        5.9429924911
 H        -0.0620263271        3.0443463236        5.1160287637
 H         0.6082235316        3.5791546521        6.6182509105
 H         5.0022424243        2.2664092263        4.8588112351
 H         5.1119369013        3.9751824013        4.3445298465
 H         6.1082632157        3.0466705801       -0.6846365263
 H         7.3282307651        1.7600011300       -0.0672106305
 H         7.2514166707        3.7920502997        1.0061040056
 H         6.7682652023        4.2897144878        2.6953950470
 H         5.8925246848        4.5672940919        1.2042100124
 H         7.4060059854        1.2160508404        2.4380025302
 H         6.7147225469        2.1117510744        3.8444638816
 H         5.9145212647        0.6804693558        3.1385836541
 H         6.5921358025        1.0167198294       -2.4549243307
 H         6.0189325671        0.0360911051       -1.2097777814
 H         2.1639437980       -1.9590780126       -4.1159899327
 H         2.7798255257       -2.5141056990       -2.5770423510
 H         3.6620855890        1.7803700542       -4.6068149397
 H         2.6484080715        0.3938992263       -4.8986401641
 H         4.3478230117        0.4123690724       -5.3128653866
 H         4.5626182425       -1.9340658910       -3.8095966906
 H         5.9332752527       -0.8756349936       -3.8091011782
 H         5.1881826626       -1.5054602061       -2.3065325243
 H         0.2739722653       -1.6202121095       -1.6304553312
 H         0.5783191629       -3.2761206334       -2.5001890497
 H        -3.3552918677        1.0446108939       -3.6396886221
 H        -2.5227952165        0.0919977344       -4.9046778520
 H        -2.2221152913       -2.2113491341       -5.2851617684
 H        -3.6585558695       -3.1041816018       -4.3945647652
 H        -2.0842779034       -3.8699280340       -4.7784763507
 H        -1.8647850279       -2.5280320726       -1.1881711323
 H        -3.1129373361       -3.4619535073       -2.0280412166
 H        -1.3951295551       -3.9371305748       -2.2055087675
 H        -4.6728358426       -1.2919767302       -3.8959662088
 H        -5.1559432821        0.4090915558       -4.2928438377
 H        -4.2276068942       -2.9548099638       -7.5677258805
 H        -4.0763026834       -4.1692096394       -6.2308443849
 H        -5.5015477780       -4.2839953240       -7.3821729800
 H        -6.8014691445       -0.7562224968       -4.3933719840
 H        -8.0109469595       -1.4197741649       -5.4805416203
 H        -7.3921865697        0.2527524743       -5.8648381575
 H        -6.6379263737       -1.9165474211       -8.3103109757
 H        -6.8529635392       -0.0808710851       -7.9402502685
 H        -5.3125223110       -0.8483121059       -8.4973228775
 Na        2.4323895084        1.6398545439        0.1907386033
