155

 C        -2.4461924708       -8.1885600545        1.9173757268
 C        -1.5623039352       -6.9349939895        2.0705401562
 C        -0.8652733231       -6.7124849683        3.4198368529
 C        -1.0900630596       -5.2246838243        3.8504322644
 C        -2.5312926136       -4.6904009779        3.6086397166
 C        -1.6475861889       -7.4510083456        4.5292995534
 C         0.6773100868       -7.0276481683        3.1890812942
 O        -1.4298688493       -6.1440039169        1.1528661151
 O        -0.1926292704       -4.5038457465        4.2585650230
 C        -2.7208694852       -3.2477463137        4.0948167888
 C        -3.2006996253       -2.1544650551        3.0980347923
 C        -3.8507630249       -0.7385432107        3.7250682784
 C        -3.7591771702        0.4387826154        2.6409155485
 C        -2.4777605513        0.4843839463        1.7695201067
 O        -3.1023064834       -2.3700027131        1.9125620941
 O        -4.5764423136        1.3155196045        2.4490248697
 C        -5.3012070587       -0.9724798385        4.1563938138
 C        -2.8449963977       -0.1791973943        4.8132817054
 C        -2.3469552893        1.6519585967        0.8241636130
 C        -0.9848508436        1.8148138461        0.2102488936
 C        -0.8565111215        3.2429200329       -0.5758558685
 C         0.2123809325        4.0219065511        0.2909152549
 C        -0.2588606159        5.1419068557        1.2227948586
 C        -0.4719377628        3.0695080979       -2.0405016626
 C        -2.2236418843        4.0279209953       -0.6432286357
 O        -0.0891553116        1.0068523076        0.2416383387
 O         1.4350635296        3.7590740368        0.1615816451
 C         0.8195716481        5.4935682640        2.3501273702
 C         0.6223741988        4.5851477066        3.6360857656
 C         1.5782907849        4.8221003617        4.9259515876
 C         2.9541788749        4.2244804833        4.5437681579
 C         2.9754244038        2.6399854059        4.3426250736
 O        -0.2304380964        3.7856856670        3.7221520650
 O         3.9828065861        4.8642605269        4.3394100589
 C         1.6874215290        6.3018563079        5.4656488894
 C         0.9958607065        3.9085591409        6.0438356908
 C         4.3812442401        2.2113816773        3.8447139467
 C         4.3569448497        2.0832045323        2.2494036285
 C         5.6560077745        2.2967219766        1.4537018330
 C         5.5982240776        1.3743540326        0.1662889454
 C         6.3510160407        1.8285998921       -1.1099487088
 C         5.8945467454        3.8255255598        1.1726083394
 C         6.9008811255        1.9153583826        2.3491575028
 O         3.3102215905        1.8901521214        1.7443276443
 O         5.0380867549        0.2977717732        0.0738079756
 C         5.9293903793        0.9176415679       -2.2574384255
 C         4.4651827724        1.0191218927       -2.4160688288
 C         3.7268154399       -0.0556067755       -3.3563355005
 C         2.7653804241       -0.8644492835       -2.4255033699
 C         2.2423083073       -2.2827207550       -2.8488139889
 O         3.7992973143        1.9055578811       -1.8926686061
 O         2.3716424864       -0.5099531176       -1.3248287987
 C         2.7016202827        0.7667307660       -4.2787518281
 C         4.6785079526       -0.9952714563       -4.0871810938
 C         0.7333855227       -2.4476528052       -2.5332531649
 C        -0.2281353515       -1.6344477735       -3.4145383603
 C        -1.6158057256       -2.2438335425       -3.4847436085
 C        -2.4444400045       -0.9218464974       -3.5259435074
 C        -3.1744518431       -0.3429985629       -4.8443518118
 C        -1.5634405693       -2.9352422393       -4.9798947186
 C        -2.1296935129       -3.1418340062       -2.3296984062
 O         0.0378112677       -0.5910090893       -3.9808249525
 O        -2.6691867452       -0.2580581178       -2.5061305323
 C        -4.4918301115       -1.0549458174       -5.0156261502
 C        -5.1732136057       -0.4114386645       -6.2787630331
 C        -6.7456317517       -0.5978383081       -6.3763735076
 C        -6.8747823869       -2.1181546036       -6.7996657556
 C        -7.6890134130       -2.5808114907       -7.9882188015
 O        -4.5007175414        0.1056244605       -7.1688123373
 O        -6.2481892732       -2.9047547334       -6.1184307191
 C        -7.4863983524       -0.2641334053       -5.0139615533
 C        -7.1758008917        0.3834090003       -7.4348569154
 H        -2.2277061309       -9.0413451040        1.2960167195
 H        -2.6820474088       -8.8569541409        2.8119632463
 H        -3.3943847754       -7.8331716090        1.5461531839
 H        -2.6794419037       -4.6130699864        2.4854978628
 H        -3.3263369085       -5.1861562251        4.0238819824
 H        -2.5203001830       -6.8529919206        4.7104622644
 H        -1.1850981970       -7.2189544523        5.5226955924
 H        -1.6979457568       -8.4926745632        4.3668499174
 H         1.0663527160       -6.2352252924        2.4667099079
 H         1.2534797560       -7.0301507141        4.0399587903
 H         0.6952098544       -7.9629466979        2.7433401296
 H        -3.3512950112       -3.1267315802        5.0526244262
 H        -1.8013124129       -2.7245180039        4.3976946973
 H        -1.7175542088        0.4060363507        2.5229994742
 H        -2.5078658348       -0.4569916199        1.1918734870
 H        -5.7893556517       -0.2028887996        4.6867429562
 H        -5.4051137784       -1.7137080559        4.9134039137
 H        -5.9042082503       -1.2473519647        3.2910414264
 H        -2.6810520209       -0.7595718068        5.7032284761
 H        -1.7873642365        0.0037166672        4.5092020222
 H        -3.2702531686        0.6652955227        5.3562754033
 H        -2.6060002672        2.5668156019        1.3147058335
 H        -3.0223501201        1.5889854885       -0.0842348678
 H        -0.5202724748        5.9052500600        0.4641512191
 H        -1.1615316997        4.7019448806        1.7583649291
 H         0.5582259727        2.6796724616       -2.3643682575
 H        -0.4425054966        3.9851476372       -2.5832532750
 H        -1.1273543686        2.4416681356       -2.6403752668
 H        -2.9599163625        3.3290345310       -1.0824852870
 H        -2.6536572407        4.1941931110        0.3708451742
 H        -2.1872553166        4.8917012918       -1.2868380603
 H         1.8608009339        5.3816414934        2.0767869768
 H         0.6431661690        6.5917154666        2.7280373744
 H         2.6629058608        2.1889455706        5.2612941758
 H         2.2119636962        2.4784234880        3.5704871024
 H         2.2868214879        7.0173696798        4.8586017289
 H         2.1720502018        6.2350182787        6.4302178574
 H         0.7611906427        6.8432881963        5.6456242811
 H         0.0222567159        4.2452312090        6.3659687556
 H         0.8989931220        2.8841210175        5.7415697845
 H         1.7093343026        3.8712965645        6.8885711496
 H         4.5548948242        1.1991020260        4.2154204065
 H         5.0423432418        2.9579951816        4.2718952851
 H         6.0069511252        2.8832450034       -1.1997383250
 H         7.4606467636        1.9469251310       -0.8876752511
 H         6.9665686421        3.9663668012        1.1406421107
 H         5.5609281285        4.5405710445        1.9457917867
 H         5.3278006996        4.1434930964        0.3550580912
 H         7.7880343717        2.0890903045        1.8371368837
 H         6.9049321314        2.6637096898        3.1343373861
 H         6.9777876526        0.8959266282        2.7665403990
 H         6.5065686944        1.0771939282       -3.1763148254
 H         6.1086092514       -0.0769232510       -1.9282897196
 H         2.5110731395       -2.3083712951       -3.8795154387
 H         2.8976954611       -3.0398988932       -2.2808027808
 H         3.0678768334        0.5244630064       -5.2025200735
 H         2.8435841550        1.8299733541       -4.0936985174
 H         1.6679533702        0.4795391148       -4.1646329091
 H         4.3049925347       -1.2962933125       -4.9747143166
 H         5.6215719598       -0.4760426194       -4.3351609269
 H         4.9506441612       -1.8888257742       -3.5062191040
 H         0.5382027124       -2.2348638583       -1.3981296166
 H         0.3509789163       -3.5044831469       -2.4679422658
 H        -3.1915960366        0.7186567209       -4.7985215352
 H        -2.4455927636       -0.4580363120       -5.6685609305
 H        -1.1136124876       -2.1721217670       -5.5883388532
 H        -2.5483106958       -3.1563081630       -5.4358570910
 H        -0.8492427130       -3.7701601713       -4.8030115520
 H        -1.5314308979       -3.1017887788       -1.4598620192
 H        -3.2543762845       -3.0492328617       -2.1189190139
 H        -2.0046854149       -4.1682002345       -2.5218478464
 H        -4.5080535157       -2.1082366824       -5.2941188198
 H        -5.1113903366       -1.0537927617       -4.1357695150
 H        -7.6654256584       -3.6785248004       -8.0568928867
 H        -8.7337182985       -2.1797643525       -8.1116920549
 H        -7.1146997303       -2.0587967343       -8.7901597546
 H        -6.7586416137       -0.1821195447       -4.1422752546
 H        -8.1587608646       -1.1503375034       -4.8539379000
 H        -8.0976395073        0.6236892207       -5.1542430734
 H        -8.1940123397        0.6092095312       -7.5209245480
 H        -6.6793987877        1.4348492599       -7.4404494672
 H        -6.7296732766        0.0274974403       -8.3941677467
 Na        2.0367854965        1.6415144883       -0.4029028777
