155

 C        -2.6055209879       -8.0988350509        2.3541267804
 C        -1.6883658616       -6.9211463828        2.4684002851
 C        -0.7084487469       -6.6397443345        3.7263439738
 C        -0.7643587210       -5.1099124492        3.9513353265
 C        -2.0851773661       -4.4049860670        3.7658399938
 C        -1.4403111489       -7.3025485044        4.9060385975
 C         0.7303033900       -7.1338187640        3.3023392074
 O        -1.4522764066       -6.2242832229        1.4913134958
 O         0.2613518395       -4.5739251905        4.3804655043
 C        -2.2389043560       -3.0834983051        4.4959797776
 C        -2.8564613889       -2.0512823102        3.5111001901
 C        -3.5145408137       -0.7425932800        3.9191633572
 C        -3.6171617710        0.2763188455        2.7208383294
 C        -2.2311698250        0.5566847257        1.9395705258
 O        -2.8370254884       -2.2480342952        2.3001817099
 O        -4.5998839491        0.9010068633        2.4088887987
 C        -5.0392780219       -1.0719039228        4.2747614813
 C        -2.8546476036       -0.1181455794        5.1831432675
 C        -2.3699480060        1.7216412745        0.9787340426
 C        -1.0479150854        1.9111494769        0.1397313288
 C        -0.8185228556        3.3386083826       -0.5917536345
 C         0.2549459310        4.0071271713        0.3525305123
 C        -0.0434135472        5.2090789204        1.2425833812
 C        -0.2027254936        3.0383914586       -2.0305875694
 C        -2.1209042676        4.2337689009       -0.7852615709
 O        -0.1943659123        1.0837911031        0.1575484963
 O         1.4748297216        3.7211098696        0.3303687626
 C         0.9990229575        5.2843510286        2.3985658192
 C         0.6857620048        4.3971923454        3.6690188184
 C         1.7818162897        4.6425427402        4.8115848474
 C         3.0616504640        3.8213417790        4.3534623350
 C         3.0805522767        2.2711617375        4.4250154919
 O        -0.0880171000        3.4693075706        3.7083687074
 O         4.0214727396        4.4114616427        3.8115960415
 C         2.2007542792        6.0696445125        4.9307031672
 C         1.1543054037        4.2285906207        6.1937191502
 C         4.2768271654        1.6962548306        3.7490559329
 C         4.1050237704        1.9163380181        2.2140901346
 C         5.5007840095        2.3054381976        1.3879263160
 C         5.5738520141        1.3752887095        0.1319268679
 C         6.2954006316        1.7113367331       -1.2072945432
 C         5.3861729167        3.8338655390        1.0483645075
 C         6.8935031933        2.1056616139        2.0301940680
 O         2.9647370288        1.8663682610        1.7554828122
 O         4.9912004534        0.2977032699        0.0904368761
 C         5.7959695464        0.8410995552       -2.3981553078
 C         4.3596132898        1.0350522749       -2.5984303137
 C         3.5066508708        0.0689165117       -3.5562313497
 C         2.6413440462       -0.8477322359       -2.5031359229
 C         2.3674878130       -2.3749580961       -2.8540211609
 O         3.7804917110        2.0335771411       -2.1707149367
 O         2.2075285785       -0.3959041216       -1.4750366689
 C         2.6668750280        0.9712309220       -4.4705055901
 C         4.5102073991       -0.8291078233       -4.3145745445
 C         0.9130416318       -2.8675620165       -2.5144749511
 C        -0.1827332363       -1.8759094871       -3.1525731685
 C        -1.6173666692       -2.3349616623       -3.4994542115
 C        -2.4843299303       -0.8834565627       -3.7700934157
 C        -3.0975608601       -0.5631551970       -5.2008328538
 C        -1.4562901036       -3.1523567012       -4.8127181485
 C        -2.2584243915       -2.9773870907       -2.3062213555
 O         0.1615259133       -0.7129962708       -3.4414849441
 O        -2.7151246463       -0.1407116803       -2.8038910525
 C        -4.5145811737       -1.1732341397       -5.5858611252
 C        -5.4143147856       -0.1732830165       -6.3646689714
 C        -6.9700940452       -0.3651458493       -6.6002112055
 C        -7.4671864678       -1.8530487386       -7.1152308207
 C        -8.6936343485       -2.0045512974       -8.0273340554
 O        -4.9280187586        0.8365514958       -6.8152160123
 O        -6.9981833398       -2.8694930003       -6.6356003113
 C        -7.5420501454       -0.3072262326       -5.1761119625
 C        -7.4832703078        0.8008304188       -7.4166827814
 H        -3.6309730193       -7.9323709810        2.0874904198
 H        -2.3924069185       -8.8694515169        1.5834458109
 H        -2.8396113455       -8.5760222561        3.3061888267
 H        -2.2284298988       -4.1704790936        2.6606013711
 H        -2.8382352749       -5.0506389856        4.0563227711
 H        -2.5115842168       -6.9322767880        4.8674364514
 H        -0.8298450742       -7.1262003864        5.8921606855
 H        -1.5131866301       -8.3640073522        4.7108620040
 H         1.0003270170       -6.4416374871        2.4166891565
 H         1.4766626531       -6.8547590787        4.0438694030
 H         0.6503599300       -8.2156119853        3.0892065123
 H        -2.9314624284       -3.0365813479        5.3976985998
 H        -1.2222729849       -2.8543943997        4.7431069921
 H        -1.3645216560        0.7017747332        2.6844211758
 H        -1.9578425687       -0.3355938720        1.2995145121
 H        -5.7544515073       -0.2895657815        4.2702178857
 H        -5.1536068625       -1.4938874170        5.3083766797
 H        -5.3813540660       -1.8554987815        3.6340692924
 H        -2.8268023710       -0.7904337218        6.0258180591
 H        -1.7792062270        0.1171615602        5.0127162469
 H        -3.2387790792        0.8286777088        5.5756187619
 H        -2.4803845941        2.6298805139        1.5246822878
 H        -3.1277465848        1.5717324966        0.1862587350
 H         0.0138707236        6.0893505528        0.6162063976
 H        -1.0388685368        4.9591961195        1.6807639078
 H         0.5729879611        2.2982923662       -2.1670264860
 H         0.5225384497        3.8019319568       -2.3525650878
 H        -0.9247701380        2.8732280123       -2.8458266692
 H        -2.7350299003        3.6551328099       -1.4951574630
 H        -2.5747937890        4.3890199503        0.2250392271
 H        -1.8823913308        5.2104520444       -1.1721607349
 H         1.9699950938        4.9658251863        2.1084486997
 H         1.0410142573        6.3495143455        2.7708500255
 H         3.1913092072        2.1538240247        5.4945106118
 H         2.1212081692        1.8687079273        4.1224862382
 H         2.6217776017        6.5698055852        4.0632256256
 H         2.9058197386        6.1856693490        5.7046773585
 H         1.3860946694        6.6901656046        5.0640497412
 H         0.3521414565        4.9576064468        6.3879152019
 H         0.8200061796        3.2131401691        6.1523274711
 H         1.9053698682        4.2209937456        6.9849974092
 H         4.4214220482        0.6960641361        4.1254179648
 H         5.0929812122        2.3184624390        4.0692131220
 H         5.9353155916        2.7377429022       -1.3757789498
 H         7.4229494594        1.8334464075       -1.0583062534
 H         6.2151164273        4.1013039878        0.3899479301
 H         5.2784427159        4.4810922385        1.9948576630
 H         4.5000650087        4.0152589383        0.4814070684
 H         7.6399652599        2.0527207947        1.3004205596
 H         7.0956156702        2.9277341677        2.7832073951
 H         7.0416167728        1.1547142596        2.5749856269
 H         6.3567375402        1.1715916853       -3.2931934960
 H         5.9693790825       -0.1862522680       -2.2489343079
 H         2.6079655911       -2.5146921484       -3.8641927755
 H         3.0574257755       -2.9645871563       -2.1776758691
 H         2.7993774271        1.9705046235       -4.1057000711
 H         1.6124388056        0.6706676981       -4.2260717455
 H         2.8105276805        0.7557281712       -5.4923777624
 H         3.9996012072       -1.4981623659       -4.9770416757
 H         5.2647256086       -0.3489836041       -4.8089154763
 H         4.9295814891       -1.5227724448       -3.4826524612
 H         0.6050239665       -2.8697147548       -1.3982462741
 H         0.7133624313       -3.9144942110       -2.6856086080
 H        -3.1337046957        0.4723616474       -5.0934289132
 H        -2.4428019447       -0.5883433994       -6.0734048853
 H        -1.0736260176       -2.4560594591       -5.4425313793
 H        -2.3889066682       -3.6634446615       -5.0566041713
 H        -0.6917556235       -3.9325775683       -4.7026247561
 H        -2.9964140714       -2.3655447071       -1.8709865182
 H        -2.8849327758       -3.8259874986       -2.6310700786
 H        -1.6685307812       -3.4217185897       -1.4991544866
 H        -4.4919163100       -2.0877982917       -6.1921018327
 H        -5.1486811505       -1.5775977543       -4.8360357145
 H        -9.4180604150       -2.7097015930       -7.6248734113
 H        -8.9523498542       -1.0545973150       -8.5305387366
 H        -8.2402302207       -2.6573191731       -8.7769831021
 H        -7.3098715067        0.6375977385       -4.6829262690
 H        -7.0221944404       -0.9712656073       -4.5244514365
 H        -8.6639363419       -0.4858202859       -5.2268692229
 H        -8.5405313765        0.8187107791       -7.6583090414
 H        -7.1137493764        1.7932764591       -7.0002180053
 H        -7.0968862518        0.8994272702       -8.4863615267
 Na        2.2299009499        1.5171627332       -0.2952737809
