155

 C        -2.5279086948       -8.2091627908        3.1599344191
 C        -1.5552964945       -7.0542829073        2.9398369565
 C        -0.5414496829       -6.6640299578        4.1808635727
 C        -0.5598767667       -5.0806306151        4.2998700237
 C        -1.8031158976       -4.2587165027        4.0334416043
 C        -1.0409382657       -7.2968122237        5.4930563421
 C         0.9485792306       -7.0744072533        3.8366990940
 O        -1.4630003046       -6.4495881046        1.9061367013
 O         0.4185815811       -4.4550521152        4.7613972803
 C        -1.4656223815       -2.7918023121        4.2707096631
 C        -2.4356909673       -2.0060843045        3.4859796313
 C        -3.0503192273       -0.7847873405        4.1370143456
 C        -3.2439356594        0.3293850026        2.8713409223
 C        -1.8833565376        0.8144106312        2.3431466130
 O        -2.7266663984       -2.4136791070        2.3561272108
 O        -4.2855039325        0.5972775275        2.3483615717
 C        -4.4692224668       -1.1388276663        4.5786084692
 C        -2.2596920120       -0.1360898152        5.2093377070
 C        -2.0504378704        1.7548743827        1.1332020336
 C        -0.8556402313        2.0627279633        0.3307060315
 C        -0.7184181689        3.3876461757       -0.5089382045
 C         0.3798893164        4.3183479700        0.2306918027
 C        -0.0160370481        5.3771470712        1.3372378447
 C        -0.1048406298        3.0838352019       -1.8515738412
 C        -2.0328744655        4.1508925134       -0.6828443666
 O         0.1124890597        1.2954888193        0.3672962127
 O         1.5258785048        4.0759049341       -0.0554728143
 C         0.9693594112        5.5542170941        2.5511174019
 C         1.0288668098        4.3565123906        3.4902618866
 C         2.0657549737        4.4863920247        4.6906591583
 C         3.3441921258        3.6730600531        4.2554557083
 C         3.5320101394        2.1671958327        4.6987678459
 O         0.2847917995        3.4325363526        3.4460603627
 O         4.2069430198        4.1377864053        3.5240069815
 C         2.4816424599        5.9465215921        4.8622544233
 C         1.5540599180        3.8614238731        5.9957739219
 C         4.4904729849        1.4708808230        3.7378924584
 C         4.0562324182        1.6262256617        2.2856389511
 C         5.1069607654        2.0614128011        1.1865443809
 C         5.2079752657        1.0156041710        0.0873425113
 C         6.2212583039        1.3296396714       -1.0724083158
 C         4.4538040718        3.3809372409        0.5853004666
 C         6.4805288529        2.2955152551        1.7588264637
 O         2.9374675130        1.4068162266        1.9201193242
 O         4.4463240792        0.0658139093        0.0101628109
 C         5.6952189505        0.6513691022       -2.3784372368
 C         4.2039336091        0.9891976235       -2.7121384884
 C         3.4740684245        0.1208471083       -3.6678928549
 C         2.5049439265       -0.7400706550       -2.8382782879
 C         2.0605356477       -2.1073910696       -3.4821481932
 O         3.6795349883        1.9092011195       -2.0934780692
 O         2.1071564162       -0.5230631294       -1.6936693502
 C         2.5576829033        0.8883724721       -4.7069641402
 C         4.4171858870       -0.7496476211       -4.5235757577
 C         0.6364892372       -2.5612239417       -2.9382113082
 C        -0.5356945708       -1.6731239061       -3.5033734833
 C        -1.9545725555       -2.3013149067       -3.6450878083
 C        -2.9209971049       -1.2263431642       -4.1300918009
 C        -3.5477056082       -1.3103127144       -5.6227252998
 C        -1.8202397948       -3.6363135844       -4.5604481104
 C        -2.5823355936       -2.8227565525       -2.4188063083
 O        -0.2702640513       -0.5979124169       -3.9805658041
 O        -3.3221014266       -0.3491437074       -3.3208603405
 C        -5.0600839742       -1.1498126433       -5.5455166201
 C        -5.6734998582        0.0957365622       -6.2173413198
 C        -7.1994847495        0.0286617683       -6.3549346133
 C        -7.6922865014       -1.2216073352       -7.3245431768
 C        -9.0860799801       -1.3229018619       -7.8720910668
 O        -4.9822927890        0.9712148114       -6.7172275944
 O        -6.8901552542       -2.0945352988       -7.4831852885
 C        -7.7603867330       -0.2649389232       -4.9365881098
 C        -7.6714703651        1.3609945896       -7.0022446353
 H        -2.0215750989       -9.1699490957        2.9591539336
 H        -2.9371378205       -8.3792264695        4.2183946559
 H        -3.4625304088       -8.3248545163        2.6413151885
 H        -2.2472299137       -4.3366570539        3.0754119954
 H        -2.6066588877       -4.5874356247        4.7860085620
 H        -2.0893169469       -6.9345706658        5.7192114672
 H        -0.3059188445       -7.0006297837        6.2880285521
 H        -1.0834969614       -8.4110545309        5.3684036552
 H         1.1475380861       -6.6376011770        2.7969991065
 H         1.5724674666       -6.8067494259        4.5903862994
 H         0.9765524632       -8.0856053234        3.7275226847
 H        -1.5588525579       -2.5696670281        5.3061719217
 H        -0.4193072114       -2.5984203815        3.8300525344
 H        -1.4420065579        1.3658120468        3.0805698463
 H        -1.3531606369       -0.0868160995        2.2019873437
 H        -5.0774751040       -0.2530639644        4.6748077139
 H        -4.4222571650       -1.7043698280        5.4297922773
 H        -5.0478858575       -1.8118527594        3.9100460707
 H        -2.2209244436       -0.8496623313        6.0512589081
 H        -1.1988764030       -0.0701898482        4.9042633197
 H        -2.5479849607        0.8748716031        5.5612758016
 H        -2.5019186812        2.7528022339        1.3954624318
 H        -2.7234464369        1.1444185683        0.4942686004
 H        -0.0957537912        6.3279156634        0.7395401830
 H        -0.9946844219        4.9874215747        1.7028544788
 H         1.0203933691        3.0222070602       -2.0357930791
 H        -0.4375389581        3.7122470368       -2.6164463833
 H        -0.4319383631        2.1277852277       -2.2716496687
 H        -2.6613584298        3.4890136102       -1.3067428841
 H        -2.4843825227        4.3659717590        0.2736391687
 H        -1.6941500514        5.0720859981       -1.2008345204
 H         2.0533558911        5.7144346114        2.2582547239
 H         0.7080166588        6.4101495073        3.2131140509
 H         3.8859786943        2.1656665863        5.7074085598
 H         2.5165688568        1.7484028566        4.7026558667
 H         2.9081008469        6.3499185552        3.9887145315
 H         3.2525146626        6.1481472019        5.5566430541
 H         1.6742522180        6.6074655038        5.1509114865
 H         1.0406320032        4.5925223790        6.5334286212
 H         0.8520404689        3.0725678225        5.7187035855
 H         2.4324233148        3.6483365037        6.6257287804
 H         4.6381997039        0.4026632188        3.9342521973
 H         5.5337297385        1.7939277937        3.9330468322
 H         6.3353251006        2.4406605559       -1.2928659825
 H         7.1660474035        0.9370384128       -0.6840728298
 H         4.0764967913        3.2868198077       -0.4238220178
 H         5.2563538040        4.0957719656        0.6778170509
 H         3.5299941363        3.6386323796        1.0752791448
 H         7.2250586852        2.7416840008        1.0673732022
 H         6.4528669690        2.9730308777        2.5402676939
 H         6.8415974040        1.3731505476        2.2174232259
 H         6.2898513419        1.1538255699       -3.0778981085
 H         5.9509171221       -0.4457303083       -2.4453048227
 H         1.9803170111       -1.9974847458       -4.6245776390
 H         2.8463557468       -2.8558659786       -3.2465889112
 H         1.5637348456        0.7886393165       -4.4283582632
 H         2.6972487469        0.4148979192       -5.6620104299
 H         2.8831298775        1.9205298870       -4.7163798885
 H         3.8400774068       -1.1769112833       -5.2187780857
 H         5.1195316147       -0.1088275142       -5.0577144239
 H         4.9583131955       -1.5765233818       -3.9755341998
 H         0.4635215226       -2.4278671620       -1.8551823962
 H         0.2968235076       -3.6204144100       -3.2134772559
 H        -3.0342353496       -0.4429934495       -6.0844779507
 H        -3.2789360387       -2.2216621279       -6.1131800603
 H        -1.4583831022       -3.3202352772       -5.5799691366
 H        -2.7878568249       -4.1057020113       -4.6701822595
 H        -1.1111521248       -4.3092858565       -4.1230995882
 H        -2.8124334288       -2.0513694363       -1.6456399306
 H        -3.5938440336       -3.4082945773       -2.5152776890
 H        -1.8973697833       -3.4563435654       -1.9768112442
 H        -5.5840249873       -2.0458684812       -5.8291615013
 H        -5.4206057072       -1.0684635694       -4.5171753460
 H        -9.7097650646       -0.4527670128       -7.6417769142
 H        -8.9582065834       -1.5091955166       -8.9532443271
 H        -9.4970666201       -2.1841487718       -7.2575400530
 H        -7.1443285840        0.1302924513       -4.0666333252
 H        -8.1531041788       -1.3433926801       -4.8590099716
 H        -8.6363406354        0.3014052306       -4.7601843745
 H        -8.6836494273        1.4512186399       -7.2653661514
 H        -7.6168622243        2.2074999383       -6.2253152836
 H        -7.1009590758        1.6714381844       -7.8882718670
 Na        2.1908011446        1.5032856486       -0.3083810946
