155

 C        -2.1258737428       -8.5448117205        4.2123525871
 C        -1.0878828048       -7.5440662351        3.9417482234
 C        -0.0946267566       -6.8153195777        4.9776107663
 C         0.0727497087       -5.2702515082        4.7598960212
 C        -0.9081119835       -4.4769779909        3.9448976227
 C        -0.4493144918       -6.8698256291        6.4650095661
 C         1.3447317915       -7.4215426723        4.8310145767
 O        -1.0537296407       -7.1298316116        2.8014142605
 O         0.9722952213       -4.7633452090        5.4384124197
 C        -1.3478733413       -3.1535567525        4.5952424453
 C        -2.0999970446       -2.1207111799        3.6875593771
 C        -2.5582297793       -0.8072533990        4.4223494840
 C        -2.8195659317        0.2597418758        3.2712880214
 C        -1.7266324281        0.5386356339        2.3012518115
 O        -2.3493847470       -2.1791134001        2.4769569311
 O        -3.8170576678        0.9152807984        3.3093888031
 C        -3.9006334435       -0.8994272139        5.2189228837
 C        -1.5710482335       -0.2690712329        5.4764379763
 C        -2.0131867424        1.7311504885        1.3374323699
 C        -0.8816331456        2.0347186185        0.3939697910
 C        -0.7942867340        3.4252912871       -0.3293319846
 C         0.4393050375        4.0695440683        0.2670086825
 C         0.3290222378        5.3429107248        1.1317845372
 C        -0.5249679510        3.1348055312       -1.8505132825
 C        -2.0748508210        4.2600049153       -0.1469885657
 O        -0.0544459083        1.1488002483        0.1748249186
 O         1.5778246026        3.8097824705       -0.1006589210
 C         1.5237956219        5.5095519793        2.0773963532
 C         1.1764998332        4.5777591576        3.3126072499
 C         2.0540664310        4.4381392556        4.6223886776
 C         3.4448588569        3.8134796269        4.3631747491
 C         3.5298234696        2.2970098693        4.1926168304
 O         0.3137681712        3.7638264594        3.0646978300
 O         4.3972345192        4.5836068756        4.2013042294
 C         2.2211959254        5.8794145245        5.2362049463
 C         1.2066042603        3.5839379917        5.6707693255
 C         4.8005134153        1.8931390512        3.3951214137
 C         4.3999228217        1.7164994996        1.9228137230
 C         5.6567205393        1.5865055541        0.9573566038
 C         5.2344721879        0.6124590738       -0.2724173152
 C         6.2355804405        0.5115057478       -1.5338489225
 C         6.2654880068        2.9513170455        0.5150571120
 C         6.8161434775        0.8129161757        1.6095637749
 O         3.2181320373        1.8679377503        1.6709199997
 O         4.2921426093       -0.1088929565       -0.2941658978
 C         5.4701687166        0.0909067474       -2.8594510914
 C         4.1715166163        0.7834498698       -3.0970173725
 C         3.2245420042        0.2510143065       -4.2277333799
 C         2.0455213068       -0.4453041186       -3.4339576368
 C         1.5234235797       -1.7459276542       -4.0515014381
 O         3.6826989185        1.7012234313       -2.4637913877
 O         1.5566722753        0.0108360395       -2.4173931807
 C         2.7461620566        1.3942590587       -5.0966389583
 C         4.0824863641       -0.6612029210       -5.2267879063
 C         0.2343083260       -2.2619909051       -3.3698121796
 C        -1.1409987390       -2.0245118725       -4.1460648464
 C        -2.5677851981       -2.4935771375       -3.5846872040
 C        -3.5483059257       -1.3094521755       -3.8352235167
 C        -4.0784683751       -1.0363081725       -5.2842594836
 C        -2.8296235394       -3.8589389349       -4.3742553738
 C        -2.4049743089       -2.8599368471       -2.0655646389
 O        -1.1071574038       -1.3896753500       -5.1567339186
 O        -3.9846284749       -0.6450966037       -2.8766887645
 C        -5.5861663300       -0.5558318951       -5.0737509530
 C        -6.1145420903        0.1035674969       -6.3200189618
 C        -7.6896283108        0.4832110380       -6.3369965482
 C        -8.3139051270       -0.0308864121       -7.7260477751
 C        -9.7639404170       -0.0750138206       -7.9185106833
 O        -5.4281399211        0.3160128168       -7.3197589054
 O        -7.6373017404       -0.2881496888       -8.6966138430
 C        -8.5645410941        0.0047412123       -5.0883345846
 C        -7.7721026249        2.0523842312       -6.4104495706
 H        -2.6342376993       -8.5060132186        5.2046628440
 H        -3.0251747436       -8.3750855322        3.5222270849
 H        -1.8121917475       -9.5894184380        4.2010933743
 H        -0.4621054701       -4.3718748647        2.9177382557
 H        -1.7192379848       -5.1955825680        3.7501958539
 H        -1.4482462091       -6.4613616025        6.7618503492
 H         0.3527947102       -6.4533600279        7.0593046775
 H        -0.5495871425       -7.9462760182        6.8883837518
 H         1.6251567108       -7.1700546244        3.7456398858
 H         2.0659786054       -6.9189251100        5.3317499494
 H         1.3530759383       -8.4317587676        4.9637515025
 H        -2.0542976815       -3.3366511054        5.4795301307
 H        -0.5695571949       -2.7491656736        5.1857040359
 H        -0.9047945881        0.7124700247        2.9154452905
 H        -1.5093585975       -0.3629586925        1.8088862327
 H        -4.4560464099        0.0468100736        5.1964742368
 H        -3.6689855298       -1.1124622915        6.2204063452
 H        -4.4570973700       -1.7435509195        4.7523348875
 H        -1.6102156505       -0.8389492452        6.4463824158
 H        -0.5880937270       -0.2353458579        5.0772132443
 H        -1.9171752440        0.7537133888        5.5191652736
 H        -2.2602865126        2.6332576692        1.9569928222
 H        -2.9502617034        1.6089462216        0.7399707997
 H         0.3142455365        6.1640575319        0.3544353462
 H        -0.6639893096        5.5002513212        1.6025538933
 H         0.5738037489        2.9416020319       -2.0930580259
 H        -0.6838087838        3.9728616471       -2.4756959451
 H        -1.0435971536        2.2553156408       -2.2283202162
 H        -2.8850219705        3.7561942985       -0.6935817049
 H        -2.2240814174        4.4425690712        0.9110804996
 H        -1.8848405753        5.2667056735       -0.6029504290
 H         2.5383758622        5.0660075197        1.7481891757
 H         1.6934069922        6.4902016909        2.3916497930
 H         3.7524761101        2.0046658966        5.2452287148
 H         2.6663075735        1.8049254327        3.8495146692
 H         2.8769215635        6.4990723198        4.7315974688
 H         2.6442892942        5.7408888620        6.2360817395
 H         1.3008136491        6.4538660296        5.3448441258
 H         0.3124700549        4.2044385061        5.6393541436
 H         1.0632868028        2.5089482354        5.5007827577
 H         1.6736085179        3.6458193180        6.6355971425
 H         5.2334774176        0.9237605148        3.7667546037
 H         5.5890137694        2.6786634826        3.4154402742
 H         6.7211116694        1.4558967435       -1.6778471681
 H         7.0684068457       -0.2514700532       -1.4175531053
 H         5.5170148441        3.5164298944       -0.0011420934
 H         7.1106859945        2.8963818097       -0.0542040978
 H         6.7415188192        3.3751886121        1.4363992630
 H         7.6241070309        0.5647116514        0.8420895810
 H         7.2722675362        1.2566446544        2.4507956167
 H         6.4929487486       -0.1665714792        1.9603085946
 H         6.0634805764        0.0773859614       -3.8305216671
 H         5.2505394059       -0.9500380295       -2.7719497330
 H         1.3712481954       -1.4908510803       -5.1514826841
 H         2.2781474185       -2.5449674147       -4.2115969575
 H         2.0238201622        1.9803132993       -4.5783236583
 H         2.2965732458        0.9975405050       -5.9927779522
 H         3.6094319251        2.0335610772       -5.4361935831
 H         3.5915995020       -0.8155688650       -6.1319527954
 H         5.0262742979       -0.1229421396       -5.5390516063
 H         4.3857631970       -1.6678544506       -4.7933648837
 H         0.1914146661       -1.8062337362       -2.4004915256
 H         0.2541473117       -3.3677261456       -3.2852557625
 H        -3.6706002921       -0.1315048801       -5.6945022020
 H        -3.9340178962       -1.8801005295       -5.9990913816
 H        -3.0715511195       -3.5258230821       -5.4302211084
 H        -3.6453910483       -4.3843082906       -3.9794410007
 H        -2.0727382043       -4.5942455282       -4.4624476808
 H        -2.4807287716       -1.9166345130       -1.4116377960
 H        -3.3196481102       -3.4837232289       -1.7537686883
 H        -1.5509575146       -3.3952894016       -1.7907938189
 H        -6.2589188907       -1.3569785597       -4.8709790157
 H        -5.3898098751        0.1956107209       -4.3089641955
 H       -10.3199584432        0.6393942175       -7.2882412649
 H       -10.0879439521        0.1647120079       -8.9480845923
 H       -10.2343221133       -1.0851575517       -7.8080883057
 H        -8.3097407273        0.5963296304       -4.1835835973
 H        -8.2340852759       -0.9823605706       -4.6071830355
 H        -9.5977876469       -0.0939018670       -5.3580045049
 H        -8.8355021984        2.2351519564       -6.4830177085
 H        -7.3592814499        2.6355790277       -5.5080262436
 H        -7.3961740799        2.4802224623       -7.3606327561
 Na        2.1954762476        1.2949467235       -0.6047560814
