155

 C        -1.9817028500       -8.6286460129        4.5988763419
 C        -0.8176233310       -7.6650701526        4.2382394663
 C         0.0563121464       -6.8606354293        5.3601541021
 C         0.0798847066       -5.3589046598        4.9038832092
 C        -1.2485869517       -4.6484123177        4.7081903628
 C        -0.4242936820       -6.7590998278        6.7890307266
 C         1.5613693753       -7.3829352934        5.2079617040
 O        -0.5788230817       -7.4669938137        3.0590193218
 O         1.1148642359       -4.7444391970        5.0763744052
 C        -1.2347645106       -3.1219287006        4.9653278793
 C        -1.8632297005       -2.2318729944        3.8668218552
 C        -2.3556753853       -0.8375680533        4.4657867045
 C        -2.6000121457        0.1787788736        3.3959626619
 C        -1.7005188774        0.3032292432        2.1193937092
 O        -1.8654329410       -2.4387003844        2.6591876020
 O        -3.5135233551        0.9583284451        3.6246383938
 C        -3.6563047868       -1.0697590548        5.3423904214
 C        -1.3957146407       -0.0418237283        5.4709211888
 C        -1.6447020886        1.7121568752        1.6513734733
 C        -0.5009533061        2.0639839763        0.6717919578
 C        -0.6596932048        3.5114012573       -0.2149799170
 C         0.5729924716        4.2829394179        0.0160914100
 C         0.4067800261        5.5346102618        0.9371700381
 C        -0.7185495739        2.9940188724       -1.6638610170
 C        -1.9897397732        4.2962714728        0.0962480299
 O         0.4914430854        1.3706650384        0.5465268874
 O         1.6553175836        3.8721305733       -0.4008186736
 C         1.3854316862        5.4304519487        2.1172072024
 C         1.0783497735        4.3623621579        3.2046446852
 C         1.9617824437        4.3768919257        4.5581247043
 C         3.3722229377        3.9518877146        4.1211856911
 C         3.5821442204        2.4385467988        3.9759361517
 O         0.2179464874        3.5282752038        2.9753781758
 O         4.1733464066        4.8164598010        3.7301922524
 C         1.9281323114        5.8524176946        5.0421581240
 C         1.4533400567        3.4760374722        5.6491193788
 C         4.9374418004        2.0594053002        3.3331905653
 C         4.6016719843        1.6546309055        1.8580525029
 C         5.7842602910        1.1169357681        0.9573584666
 C         5.2210101210        0.4437922240       -0.3639274801
 C         6.1031601831        0.5252009898       -1.6792547811
 C         6.8448995550        2.1544016438        0.6633242937
 C         6.5799110846       -0.0283166219        1.6698466852
 O         3.4277627082        1.8548354890        1.4868538491
 O         4.1180106239       -0.0349323354       -0.4320403564
 C         5.3146067423       -0.0568368663       -2.9249669671
 C         4.0622250748        0.7524933662       -3.3095357502
 C         3.0200521364        0.2639375547       -4.3513786211
 C         1.7512709706       -0.4464486178       -3.5300354322
 C         0.9916130924       -1.4117080378       -4.4231653152
 O         3.9402342689        1.8324333505       -2.7495537861
 O         1.5499731393       -0.1675588184       -2.3875950767
 C         2.4687224699        1.5360122642       -4.9886564984
 C         3.6899377740       -0.5487763720       -5.4730629636
 C        -0.1579927141       -2.0817470318       -3.7974395736
 C        -1.5300112907       -1.9738259952       -4.4533046615
 C        -2.6730158365       -2.5897375355       -3.5534211946
 C        -3.7626191959       -1.3275858056       -3.6219516582
 C        -4.3946992303       -0.9997720121       -5.0304961050
 C        -3.3326983216       -3.7728534122       -4.3619994023
 C        -2.3782538534       -2.9744292696       -2.1175198838
 O        -1.6615997976       -1.6520710311       -5.6266114381
 O        -4.0022712537       -0.7142896465       -2.5813737082
 C        -5.7753807461       -0.2976120599       -4.9417785056
 C        -6.2492374920        0.1511002966       -6.3768611249
 C        -7.7555947126        0.7713346721       -6.4394918871
 C        -8.4306072345        0.3733466738       -7.8384942247
 C        -9.9262528352        0.5362738986       -7.9930368616
 O        -5.4072863301        0.3983172368       -7.2156878707
 O        -7.7493597754       -0.0509391667       -8.7334663146
 C        -8.7835353203        0.1316025725       -5.3672829575
 C        -7.6627566772        2.2280044490       -6.2029865959
 H        -1.9207305321       -9.1415986416        5.5394898690
 H        -2.9715451779       -8.0919401941        4.3669383408
 H        -1.9885719270       -9.4765872992        3.8931317355
 H        -1.4523493131       -4.6850924944        3.6426553204
 H        -2.0624815652       -5.1789172111        5.1892711254
 H        -1.4919546427       -6.7203414703        6.8943614924
 H         0.2470732560       -6.0117930747        7.2898674740
 H        -0.3569275642       -7.6386442284        7.4191588500
 H         1.9366743721       -7.2128925487        4.2239280306
 H         2.2093447211       -6.9247005782        5.9775047945
 H         1.6843571931       -8.4815830998        5.3468650822
 H        -1.6490163220       -2.7653816483        5.9634228704
 H        -0.2445428333       -2.8018669406        5.0146327333
 H        -0.8334713871       -0.1951124251        2.3388984338
 H        -2.2132373943       -0.2736731218        1.3855596471
 H        -3.9507474943       -0.1101031950        5.8322070186
 H        -3.3953692508       -1.8570449447        5.9675637871
 H        -4.5097847168       -1.4749669182        4.7178839288
 H        -1.1787746323       -0.6752696235        6.3521501597
 H        -0.5789079135        0.3196075374        4.9231480435
 H        -1.9490357076        0.8502001725        5.6481741563
 H        -1.4904816574        2.3744894250        2.5610129406
 H        -2.6495943804        2.0604067958        1.3160108985
 H         0.6438964720        6.4794244493        0.3907811952
 H        -0.6184978651        5.5959710818        1.3709663690
 H         0.1666345504        2.2761534374       -1.8869012129
 H        -0.6283849425        3.6480422247       -2.4865247377
 H        -1.7051984099        2.4812064712       -1.7085888065
 H        -2.7801900895        3.6839065816       -0.3508429295
 H        -2.2132883892        4.3907726266        1.1298665133
 H        -2.0272293276        5.2553681902       -0.4578549632
 H         2.5300845696        5.4345068520        1.9005887135
 H         1.0998426370        6.2598225670        2.6963623867
 H         3.6985455921        2.0185078704        4.9939085640
 H         2.7546186597        2.0186206410        3.4857997715
 H         2.4815288391        6.4623466629        4.3403536523
 H         2.4543599399        5.9054599418        6.0214643716
 H         0.9111908377        6.3349337107        5.1503884961
 H         0.5305422551        3.9005526062        6.0127921830
 H         1.2288127137        2.4557684027        5.2370452620
 H         2.2017748750        3.4172785667        6.4678327775
 H         5.3106136478        1.1546591952        3.8257614951
 H         5.5860087608        2.9268574141        3.3265039469
 H         6.4592171448        1.5084056423       -2.0119594125
 H         7.0875980098       -0.0636035194       -1.5726899749
 H         6.3626831893        2.9129244401        0.0416281750
 H         7.6727671198        1.6555839796        0.1650715731
 H         7.2211653758        2.7436382395        1.5180229533
 H         7.4987252863       -0.3006602701        1.0437849683
 H         7.0755700039        0.2140377995        2.5695733430
 H         5.9529951261       -0.9005734446        1.9042006157
 H         6.0111166430       -0.2282685573       -3.7781780467
 H         4.9222086948       -1.0107054948       -2.7040145833
 H         0.6662284847       -0.8550625062       -5.3161380606
 H         1.6051062507       -2.1630166513       -4.9192859313
 H         2.3176456122        2.3567503392       -4.2868496279
 H         1.5070832140        1.3981202623       -5.5704046440
 H         3.1832484504        1.8220038934       -5.8419195042
 H         3.0195234510       -0.8966674351       -6.2307015045
 H         4.4052328684        0.0578930985       -5.9460210800
 H         4.1981274406       -1.4850008494       -5.0766563217
 H        -0.1439767310       -1.9278137325       -2.6943297422
 H         0.1167101228       -3.2001883741       -3.9137020805
 H        -3.6195754378       -0.4298520171       -5.5263855863
 H        -4.5702301101       -1.8394899369       -5.7234361723
 H        -3.1215255035       -3.7585202300       -5.4730997851
 H        -4.3562389529       -3.8775313184       -4.0992933032
 H        -2.9432742691       -4.7376619037       -4.1084050036
 H        -1.9507242074       -2.1844490464       -1.5053089860
 H        -3.2924991986       -3.2791368135       -1.5048622154
 H        -1.7879341281       -3.8210152802       -2.3009962194
 H        -6.4255941031       -1.0380307569       -4.5156175909
 H        -5.7938106275        0.6473243924       -4.3294771999
 H       -10.3828681678        1.2004009773       -7.3078005614
 H       -10.2949729411        0.8303600742       -8.9596606905
 H       -10.5541870610       -0.3527823265       -7.8178468874
 H        -8.4269526086        0.5370889684       -4.4057682969
 H        -8.6931956490       -0.9699174572       -5.2447725537
 H        -9.7288508336        0.5046484870       -5.4708237820
 H        -8.6103449156        2.7055544368       -6.4121187572
 H        -7.5751838052        2.4009168014       -5.0518769077
 H        -6.9329383934        2.6415577216       -6.9285246161
 Na        2.4091370969        1.6222712881       -1.0504243214
