155

 C        -1.7278201737       -8.7114305398        4.9016540494
 C        -0.6516758551       -7.6204580626        4.5745901684
 C         0.2642150666       -6.9822907954        5.6865063548
 C         0.3613309811       -5.4573048434        5.1266249504
 C        -1.0084703074       -4.7321942061        5.0224480673
 C        -0.3667205819       -7.0452803220        7.1172194512
 C         1.7165997559       -7.4850423896        5.7286095664
 O        -0.2430091696       -7.5173776330        3.4185809963
 O         1.4085657967       -5.0476022616        4.7645316939
 C        -1.0802294624       -3.2234341900        5.3264729104
 C        -1.6777728360       -2.3571102686        4.2167755132
 C        -2.1582559494       -0.8878126724        4.6780026029
 C        -2.4941667574        0.1291267445        3.5068315432
 C        -1.3531009090        0.3239080162        2.4513352543
 O        -1.8571951756       -2.6977303038        3.0722405246
 O        -3.5265966173        0.8083788554        3.5795530522
 C        -3.4298193771       -1.0650760860        5.4137420502
 C        -1.1983426163       -0.0525994682        5.6407713025
 C        -1.7514050989        1.4319097247        1.5220971928
 C        -0.5399727447        2.0032905217        0.6242437487
 C        -0.5334852921        3.2910171785       -0.2749983891
 C         0.7148098362        4.1531095516       -0.0041551861
 C         0.5826909551        5.5814717835        0.7495910104
 C        -0.5304820247        2.8560216291       -1.7084384482
 C        -1.8460093899        4.0454459261       -0.1028916933
 O         0.4444304134        1.2906922531        0.5734164823
 O         1.8091861147        3.8733676685       -0.4544090148
 C         1.6088532599        5.6323430436        1.9231378183
 C         1.2535988741        4.5926832269        2.9609766830
 C         2.0036650851        4.3848304683        4.2891115551
 C         3.3930794328        3.8440712298        3.7787639830
 C         3.8016625635        2.3862334417        3.8721069532
 O         0.3428132632        3.8412856422        2.6914845076
 O         4.1007490471        4.6625853394        3.2371751070
 C         2.3757474364        5.7124316451        5.0791003096
 C         1.2339991619        3.4227391751        5.2856480166
 C         5.1098328325        2.2364133760        3.1159047083
 C         4.8031649484        1.7388679852        1.5792658764
 C         5.6514973916        0.7040774991        0.8437237409
 C         5.0211290118        0.2384523442       -0.5446859147
 C         5.8347919927        0.4051453072       -1.8177832038
 C         7.0810960368        1.3873341405        0.6465917784
 C         5.9064341534       -0.5499276431        1.6320621333
 O         3.8508922029        2.2990772794        1.0314390473
 O         3.9569600430       -0.3362059608       -0.6054082845
 C         4.9941325277       -0.0471753978       -3.0011441158
 C         3.9100602240        0.9649901883       -3.4283226459
 C         2.8307072168        0.4669355831       -4.4843593205
 C         1.6749515828       -0.1974026994       -3.6385809472
 C         0.7058437564       -1.1204456091       -4.3101065932
 O         3.7131353491        1.9826536020       -2.7849026042
 O         1.5122980812        0.2326632829       -2.5396398236
 C         2.3409873010        1.7775859988       -5.2471025927
 C         3.5560078712       -0.3193928115       -5.5894620279
 C        -0.4815669978       -1.6705949413       -3.5386642273
 C        -1.6700343740       -2.0704525069       -4.3709684046
 C        -2.9837801473       -2.5502385070       -3.7043239671
 C        -3.9287493777       -1.3470283050       -3.6060590748
 C        -4.5629756403       -0.9064481506       -5.0105980399
 C        -3.4454925791       -3.8079301247       -4.5043909530
 C        -2.7702680241       -3.0126390611       -2.2506255421
 O        -1.6404858832       -2.0437231722       -5.5779090701
 O        -4.1897217628       -0.6558250798       -2.6349917984
 C        -6.0271872401       -0.4645613099       -4.9181409232
 C        -6.5014840953        0.3699236918       -6.1110289166
 C        -7.9616278273        0.9480408446       -6.2617809556
 C        -8.3692590121        0.6721296401       -7.7732965332
 C        -9.7010507591        1.3092719296       -8.3332883089
 O        -5.7061386118        0.5575522307       -6.9842001595
 O        -7.6455392295        0.0519033452       -8.5150559938
 C        -9.0426023758        0.5286150629       -5.2907371633
 C        -7.8883055195        2.5571734586       -6.1467284579
 H        -1.1515336071       -9.5405128235        5.1958697481
 H        -2.5506502567       -8.4279844758        5.5600577263
 H        -2.2944448559       -8.9603836838        4.0139306006
 H        -1.2707751147       -4.8220773878        3.9782083307
 H        -1.7639134603       -5.2152628731        5.6150637936
 H        -1.2592417633       -6.4008132727        7.3045837728
 H         0.2874913334       -6.5997818148        7.9563649466
 H        -0.6388456918       -8.0209270591        7.4913961923
 H         2.0494981810       -7.4502980479        4.7456046960
 H         2.3692203050       -6.8494615439        6.4273909539
 H         1.9983686334       -8.5330236330        6.1287900720
 H        -1.7742628118       -2.9986172522        6.2115593172
 H        -0.0982394339       -2.8596212903        5.5307682156
 H        -0.4941572191        0.6135436764        3.0043300657
 H        -1.1051930211       -0.6741070448        2.0571812209
 H        -3.9040336058       -0.0767849488        5.4869356932
 H        -3.1664424094       -1.5863984589        6.2836968956
 H        -4.0881130831       -1.7547384966        4.8395272778
 H        -1.2383084409       -0.5747605918        6.6469437865
 H        -0.2269383852       -0.0205415559        5.1650922604
 H        -1.7197068464        0.8839155432        5.8116032661
 H        -1.9574846489        2.3041643717        2.2409850544
 H        -2.6340897328        1.1989359224        0.8870041266
 H         1.0690272143        6.2652943510        0.0776855029
 H        -0.4037629985        5.8877716106        1.0638937656
 H         0.4102278987        2.3063760039       -1.9781889649
 H        -0.6670378453        3.6776700350       -2.3882745958
 H        -1.4401894017        2.2505141153       -1.9059410292
 H        -2.7318657463        3.4104721068       -0.2295115707
 H        -1.9326178504        4.4106362214        0.8937694673
 H        -1.8941265106        4.8819791441       -0.8342034878
 H         2.7012670113        5.5553280679        1.5233951735
 H         1.4526141388        6.5572081716        2.4215887041
 H         3.9996253659        2.1333920543        4.9625633468
 H         3.0761263261        1.7107307613        3.4827771899
 H         3.1304005721        6.3014077783        4.5485776590
 H         2.7320062534        5.4836144525        6.0839826391
 H         1.4313781057        6.2904556415        5.2211311288
 H         0.4033520367        3.9792246034        5.5876038459
 H         0.7787554671        2.5318295459        4.8576961689
 H         1.7972928834        3.3465972757        6.2117650670
 H         5.7345977710        1.4892443974        3.5812377166
 H         5.4726821894        3.2454506847        3.0340922182
 H         6.1277380502        1.4658106445       -1.8876319987
 H         6.8117037518       -0.1796281633       -1.9007599978
 H         7.1136267278        2.3789536762        0.1621496479
 H         7.6247552650        0.5620457099        0.1127258581
 H         7.4178798715        1.6381566572        1.6169369272
 H         6.4761031265       -1.3187036285        1.0321141398
 H         6.4813871312       -0.3119251582        2.4868241062
 H         4.9669135766       -1.0259668680        1.9396975973
 H         5.6232941400       -0.2099254935       -3.8935404973
 H         4.6094702413       -0.9714079422       -2.6739087731
 H         0.1992439774       -0.5299885117       -5.0596796882
 H         1.2583354290       -1.8511535271       -4.8802659896
 H         1.5146751835        2.3144887519       -4.8217196823
 H         1.9887553430        1.5215225629       -6.2826555804
 H         3.1042139657        2.5569663160       -5.2494969639
 H         2.8230618903       -0.6275034202       -6.3609885411
 H         4.2236003310        0.2891904934       -6.0052906934
 H         4.0356011134       -1.2423654365       -5.3267468926
 H        -0.5791680656       -0.9219190289       -2.7261247241
 H        -0.1785063590       -2.5421195062       -2.8664053732
 H        -3.9267816983       -0.1951038492       -5.5418500439
 H        -4.6065808780       -1.7546442289       -5.7201263912
 H        -3.7118079806       -3.5175924492       -5.5439619035
 H        -4.4428263448       -4.0821941322       -4.1207696754
 H        -2.7859925180       -4.6775632029       -4.6012532147
 H        -2.2075176219       -2.2764488820       -1.7431100473
 H        -3.7816003059       -3.1104884124       -1.7967283595
 H        -2.2553319776       -4.0154314191       -2.2851754680
 H        -6.6524641664       -1.3473757792       -4.8679906142
 H        -6.2418926282       -0.0629978819       -3.8840692416
 H        -9.6194478662        2.3350995090       -8.5615457855
 H        -9.9066690677        0.8815805184       -9.2953602495
 H       -10.6403684557        1.4446630348       -7.8044263446
 H        -8.7283892361        0.6262321265       -4.2711296158
 H        -9.3035644631       -0.4653745207       -5.6124206909
 H        -9.9270111045        1.0810761386       -5.3866153813
 H        -8.9042528827        2.8369535633       -6.0923976464
 H        -7.2860112646        2.8959472988       -5.2326128758
 H        -7.3902123154        2.9367180435       -7.0401383687
 Na        2.2457723581        1.5839053207       -0.7600738349
