155

 C        -1.3265730023       -8.8538018492        5.4162615067
 C        -0.4320218533       -7.7685873219        4.7768808399
 C         0.2876866021       -6.9053845524        5.8267232317
 C         0.6095097209       -5.3199470215        5.3636663924
 C        -0.6450204803       -4.5992111750        4.8659241118
 C        -0.4868762714       -6.9281110365        7.1849504679
 C         1.7489270740       -7.4660877860        5.8038822324
 O        -0.2884249329       -7.7650765836        3.5585736954
 O         1.6814157855       -4.8099794449        5.5253057259
 C        -0.6846600196       -3.0859254906        5.2118034244
 C        -1.5216356603       -2.2645663950        4.2801416571
 C        -1.9248659683       -0.8979332498        4.9182218545
 C        -2.1900497525        0.0206349818        3.6489257011
 C        -1.0043269616        0.3744648588        2.7095045252
 O        -1.8329474730       -2.5791757458        3.1824245151
 O        -3.3476145974        0.1885905461        3.3377120634
 C        -3.3575151397       -1.0014363216        5.6534421445
 C        -0.8450741724       -0.2504431977        5.9309194945
 C        -1.3618313275        1.5462683982        1.7874161835
 C        -0.3834710780        1.8786385409        0.6344219494
 C        -0.6610071088        3.1286238995       -0.2498667029
 C         0.6145371942        4.0022669345       -0.0248683786
 C         0.4590656685        5.4698909929        0.4753272111
 C        -0.7111043624        2.7408068948       -1.7631644189
 C        -2.0329673340        3.7595300187        0.1301275366
 O         0.5548582244        1.1076693740        0.5893521332
 O         1.7344611550        3.6500202446       -0.2197116450
 C         1.4230946757        5.6164186050        1.6095869336
 C         1.1239098160        4.6040387232        2.7449767586
 C         2.2026898690        4.3418194324        3.8329220673
 C         3.6736003407        3.9216159576        3.2855596769
 C         4.1730572879        2.4787179504        3.7284064327
 O         0.1158365216        3.9397584888        2.6074141819
 O         4.4515680985        4.6895475319        2.8300583515
 C         2.2451426246        5.7397989342        4.5663893568
 C         1.6806843202        3.2461755749        4.7905231435
 C         5.4321469085        1.9691197501        2.9778609563
 C         4.9032993370        1.4676385632        1.4884733729
 C         5.6146365811        0.2291638316        0.8056106772
 C         4.9968676152        0.0428644149       -0.6539098689
 C         5.7769756266        0.4969128794       -1.9173317518
 C         7.1304714580        0.4840382530        0.9170925196
 C         5.3064251304       -1.1017509941        1.5616268757
 O         4.0693546137        2.1268117217        0.9453404025
 O         3.8889981351       -0.4482512832       -0.8244562043
 C         4.9090392804        0.1103351818       -3.1186641304
 C         3.7179917777        1.1067341922       -3.4347372162
 C         2.5497341115        0.6287594428       -4.4279119963
 C         1.2122899127        0.1695626765       -3.5783499276
 C         0.3242098249       -0.7639000031       -4.2621955519
 O         3.5968576936        2.1379462610       -2.7795330393
 O         1.1385297151        0.5978797550       -2.4383288134
 C         2.0523211923        1.9214204237       -5.1880153667
 C         3.0729540034       -0.3475910153       -5.5379170470
 C        -1.0305157357       -1.1145285862       -3.6163116538
 C        -1.8787068883       -2.0620140231       -4.4675600588
 C        -3.0830291553       -2.6215794241       -3.7335009279
 C        -4.2075691591       -1.3480722263       -3.7147462534
 C        -4.7968902092       -1.1118928560       -5.1163180619
 C        -3.6658329647       -3.7681569584       -4.5848901952
 C        -2.9531026483       -2.8988541245       -2.2320036869
 O        -1.6652673521       -2.3314961607       -5.6478982551
 O        -4.3860316737       -0.6193870231       -2.7946901819
 C        -6.1033439765       -0.4367446227       -4.9895694137
 C        -6.3549814969        0.7819793702       -6.0377299512
 C        -7.8846441966        1.2452119686       -6.2640390479
 C        -8.4489198411        0.9253560149       -7.7776198361
 C        -9.4162217324        1.9491402277       -8.3650621191
 O        -5.4196574023        1.3139985472       -6.5847439285
 O        -8.2750342783       -0.1561659930       -8.3072770344
 C        -8.8194558396        0.4819370974       -5.3597915090
 C        -7.9444576874        2.7323399904       -5.9555696989
 H        -0.7115929505       -9.2313140130        6.2055822779
 H        -2.2213508831       -8.3631752563        5.8060072030
 H        -1.6938613778       -9.5870936255        4.6651531072
 H        -0.6588186904       -4.7736097109        3.7808981186
 H        -1.5249656908       -4.9915587500        5.3761196372
 H        -1.4505981285       -6.4915983695        7.1106425836
 H        -0.0633551025       -6.1930913536        7.9251683406
 H        -0.4359452664       -7.8412860903        7.6422908514
 H         2.2515662570       -7.3267024974        4.8126481719
 H         2.4130441314       -6.8310263219        6.4293489735
 H         1.8682531447       -8.5313761073        6.0918358270
 H        -1.2967598561       -2.8721621228        6.1799126523
 H         0.3473445405       -2.7231768998        5.1909443716
 H         0.0099435647        0.4300032519        3.1647433712
 H        -1.0276005376       -0.5747613853        2.0470210461
 H        -3.5203564805        0.0206249146        5.9901411947
 H        -3.2409912832       -1.6264769814        6.5437789554
 H        -4.0953738050       -1.2653691222        4.9264087463
 H        -0.8251206845       -0.7728280511        6.9220265698
 H         0.1027122372       -0.4229424448        5.4337839919
 H        -1.2244296638        0.7508031560        6.0487337463
 H        -1.3293743160        2.5200172258        2.3864766668
 H        -2.3581246330        1.3393213218        1.3780391413
 H         0.8747319892        6.0305644198       -0.3375389247
 H        -0.4778062912        5.9190540117        0.7320349652
 H         0.2196282552        2.4053475757       -2.1306183348
 H        -1.0719790811        3.6590611416       -2.2646559009
 H        -1.3838288153        1.8786030133       -1.9808811015
 H        -2.8530506828        3.0195232747        0.3082306133
 H        -2.0589855130        4.4956126001        0.9266205337
 H        -2.3891272949        4.4054023888       -0.6995948929
 H         2.5023355645        5.5346021056        1.2231534281
 H         1.3162355562        6.6245117986        1.9782592588
 H         4.4022033511        2.3421591027        4.8485268255
 H         3.4342007742        1.6849068680        3.6319669027
 H         2.7563051520        6.4360487090        3.8941083592
 H         2.8081577270        5.6867561794        5.4428627128
 H         1.2417215847        6.0339711561        4.8043719203
 H         0.7250277066        3.3796903673        5.1974067445
 H         1.6592472211        2.3047115821        4.1933000439
 H         2.4575526165        3.1287303636        5.5798041592
 H         5.8326162031        1.1018116123        3.5066995365
 H         6.1116946934        2.8070496598        2.8509860929
 H         6.1280304955        1.4868893636       -2.1420428638
 H         6.6912047489       -0.1287998609       -1.9813321008
 H         7.3143432855        1.4029053793        0.3466524032
 H         7.6219400797       -0.3694311251        0.3037848749
 H         7.4113786691        0.3964845591        1.9212151651
 H         5.4835974018       -1.9584784220        0.9470269895
 H         5.9057452805       -1.0866691902        2.4389754197
 H         4.2793687338       -1.2052315105        1.8522422756
 H         5.6591853664        0.1421124505       -3.9370617847
 H         4.4413165719       -0.8364903850       -3.0033365348
 H         0.1906875199       -0.4314594775       -5.2706072595
 H         0.7646695986       -1.7264990148       -4.2464400055
 H         2.5357092913        2.8192835295       -4.8788574884
 H         0.9972106290        2.1231695799       -5.0733546690
 H         2.3020307355        1.9544127385       -6.1916483511
 H         2.4165814674       -0.2334302570       -6.4310291412
 H         4.0236100453        0.0296657211       -5.8680398101
 H         3.1881328740       -1.3483531713       -5.3587624249
 H        -1.6599086752       -0.2742544468       -3.3058772719
 H        -0.7116345329       -1.5107840882       -2.6102074849
 H        -4.1877847763       -0.3238723806       -5.6210645839
 H        -4.7911688396       -1.9586940047       -5.8014752092
 H        -3.6737574141       -3.7169059302       -5.6301979947
 H        -4.7517616798       -3.8506555197       -4.3971191307
 H        -3.1644755268       -4.6742601408       -4.2324593574
 H        -3.0017242226       -1.9896152267       -1.7652775243
 H        -3.6629524723       -3.6346919388       -2.0650392013
 H        -1.9068655757       -3.3274096935       -2.0989082100
 H        -6.9255764525       -1.0942574566       -4.8568292378
 H        -6.1812665487        0.0029219113       -3.9404427485
 H        -9.0074076310        2.6032110474       -9.1293267376
 H       -10.1021221654        1.3949519211       -9.0312514986
 H       -10.0193194108        2.6753212327       -7.7774121872
 H        -8.5025847624        0.6710882769       -4.3117349532
 H        -9.0126293710       -0.5058374253       -5.7412177333
 H        -9.7993762439        0.9658492990       -5.5022070752
 H        -8.8512914615        3.1360754773       -6.3302374117
 H        -7.7655912344        2.8694302370       -4.9205101880
 H        -7.0587624682        3.0791952181       -6.3653431126
 Na        2.4354290099        1.6503927619       -0.8067558433
