155

 C        -1.1540632615       -8.9839894515        5.4203563914
 C        -0.3394819853       -7.8653474229        4.9120878997
 C         0.5167409425       -6.9724681017        5.8854675324
 C         0.6686209466       -5.3957543023        5.3386142990
 C        -0.4724645463       -4.6562008448        4.6332660106
 C        -0.2036456536       -6.6600558306        7.2747345579
 C         1.8514337910       -7.5498448091        6.2020793523
 O        -0.4633461990       -7.5124685714        3.7519563587
 O         1.5447870448       -4.7454853834        5.8704862783
 C        -0.4988093207       -3.2426833271        5.2746071972
 C        -1.3532156229       -2.2869840485        4.4131868951
 C        -1.8668177351       -0.9345883064        4.9667452125
 C        -2.2517545490       -0.0595945615        3.6601146597
 C        -0.9451744420        0.4104832551        2.8956140339
 O        -1.7359934147       -2.6559108971        3.2968513629
 O        -3.3451966003        0.2251467385        3.1703592923
 C        -3.1187226702       -1.1857936405        5.9112629763
 C        -0.7110403066       -0.2048394288        5.7741060525
 C        -1.3318828871        1.4629807241        1.8664109170
 C        -0.4381157807        1.7516060744        0.6768134070
 C        -0.7431113275        3.0950923413       -0.1324373146
 C         0.4851554081        4.0964712732       -0.0208668780
 C         0.3938141329        5.4761266502        0.4723666262
 C        -0.8436568579        2.7063037934       -1.5962783607
 C        -2.0934981054        3.7846792664        0.2967631548
 O         0.5363988992        1.0677928801        0.4649011449
 O         1.5804738810        3.9096910842       -0.6054896436
 C         1.4934058191        5.6849541094        1.5847601951
 C         1.3160594450        4.5960412595        2.6100501434
 C         2.3416952576        4.3131819113        3.8018626243
 C         3.7205930477        3.8513235386        3.1955238028
 C         4.3912290561        2.5578736116        3.6093569529
 O         0.3064809977        3.9278542224        2.6188627005
 O         4.1868829821        4.6749311262        2.3999207774
 C         2.6214590894        5.7049710105        4.5196007800
 C         1.5786552501        3.4353141469        4.7930178254
 C         5.5395768975        2.0416883118        2.6827679218
 C         4.9487271661        1.3336125672        1.3679379979
 C         5.6122786070       -0.0158267475        0.7187428735
 C         4.9497484972       -0.0451527074       -0.7203029654
 C         5.6235010370        0.4702534461       -1.9522871912
 C         7.2237477752       -0.0705144397        0.6787355968
 C         5.0611307472       -1.2346296402        1.5427780221
 O         3.9506113418        1.7449441839        0.7977775525
 O         3.8728419228       -0.6036106675       -0.7421431421
 C         4.8528311487        0.2998923929       -3.2870096397
 C         3.7041956381        1.2071005681       -3.3531819908
 C         2.4571908814        0.7515558619       -4.3803590175
 C         1.2394421792        0.1840037177       -3.5989737709
 C         0.2034394451       -0.6461805501       -4.4759645657
 O         3.6849079854        2.2583203093       -2.7917140285
 O         1.0342375777        0.3549770343       -2.4266151402
 C         1.9262906468        2.0006978016       -5.1071581009
 C         2.9564233031       -0.4039572203       -5.3090011304
 C        -1.1292523523       -0.8486672032       -3.7502261675
 C        -1.9130540454       -1.9860039514       -4.4308378210
 C        -3.2603103053       -2.6251304601       -3.7654657281
 C        -4.2803914331       -1.4029722218       -3.8838196980
 C        -4.8361085713       -1.0874757454       -5.3622046705
 C        -3.8224331061       -3.9468366800       -4.4341068706
 C        -2.9625230313       -2.9482039937       -2.3048625270
 O        -1.5809672893       -2.3535795630       -5.5094784640
 O        -4.5465941884       -0.6013408380       -2.9790585502
 C        -6.2080956648       -0.3658926613       -5.2078315624
 C        -6.4556406086        0.9106046996       -5.9844775121
 C        -7.9638716421        1.3673434180       -6.1622432245
 C        -8.4430451428        1.0115069073       -7.6536345386
 C        -9.0416455844        2.1146894227       -8.4877895733
 O        -5.5435821525        1.5956198974       -6.4407536502
 O        -8.3575725205       -0.1196985641       -8.0216322958
 C        -9.0135573270        0.6553400449       -5.2339749847
 C        -7.8602251162        2.9733761026       -5.8827825673
 H        -0.7181405770       -9.4531913860        6.3034053687
 H        -2.1553783970       -8.5080413659        5.7110122277
 H        -1.2398329387       -9.5851833165        4.5415446825
 H        -0.5373238092       -4.5615675615        3.5571989496
 H        -1.3355028059       -5.1166731308        5.0742930826
 H        -1.1263622518       -5.9885461455        7.3484751977
 H         0.5271606090       -6.1329918708        7.8766507712
 H        -0.2808528071       -7.6358272917        7.8825989303
 H         2.5979055616       -7.3000565247        5.5511014978
 H         2.2713796294       -7.1254420416        7.1308808856
 H         1.8158582727       -8.6649357663        6.2447002839
 H        -0.9658565102       -3.1841289586        6.1805981679
 H         0.5359549391       -2.9087290223        5.2520405265
 H        -0.2877094714        0.8934790423        3.5794562956
 H        -0.4833223614       -0.4181392401        2.4914507362
 H        -3.3506071877       -0.2510148602        6.4413165757
 H        -2.8540211802       -1.8382283707        6.7272486029
 H        -3.9206853558       -1.4387882604        5.1713717069
 H        -0.6464735563       -0.7060375909        6.7216156081
 H         0.2139951339       -0.4183706652        5.2372411265
 H        -1.0523249919        0.8400231282        5.8082641797
 H        -1.6320211041        2.3353724468        2.3568156924
 H        -2.1598664949        1.0058933655        1.2539360261
 H         0.4505054394        6.1962862421       -0.4075720634
 H        -0.5964865158        5.7097674936        0.9121680364
 H         0.1347374390        2.1883210993       -1.9077380661
 H        -1.1243979975        3.5471798668       -2.2182781576
 H        -1.4903629905        1.8417011684       -1.6773842506
 H        -2.9487918627        3.3349850404       -0.1305800613
 H        -2.2351084638        3.7825870467        1.3562305830
 H        -2.2746991966        4.8344153423        0.1420388609
 H         2.4800497984        5.5660974375        1.1823684601
 H         1.4960190644        6.7029321217        2.0505584058
 H         4.7425017095        2.5938372285        4.5875412961
 H         3.6310716124        1.7763255991        3.7928861724
 H         3.4749501375        6.1677663678        4.0694993207
 H         2.9293356217        5.4574176700        5.5850945625
 H         1.7197152088        6.3578225826        4.4738638561
 H         0.7201477212        4.1106160240        5.0427827943
 H         1.2278485167        2.4987250217        4.3764294951
 H         2.1524117250        3.1431592009        5.6598413975
 H         6.2527045697        1.3322462649        3.1353440424
 H         6.0603202130        2.9489577441        2.3069051675
 H         5.8423436214        1.5662789403       -1.7644066458
 H         6.6309665220        0.0254635593       -2.0341662179
 H         7.5413992919        0.7864826245        0.1281839801
 H         7.6160136199       -0.8821342186        0.1915387374
 H         7.4854500092       -0.2786703792        1.7550079155
 H         5.4796948449       -2.1963031135        1.0908633436
 H         5.2500730494       -1.1918498988        2.6158756893
 H         3.9740408112       -1.2786662138        1.3777796641
 H         5.4964645041        0.4110655830       -4.1409088672
 H         4.4105766285       -0.7144604155       -3.1956491114
 H        -0.1323345003       -0.3113311820       -5.4565720820
 H         0.5563224301       -1.7279840918       -4.5594275520
 H         2.3315192657        2.9216383392       -4.6622045567
 H         0.8453594179        2.1841810354       -5.1517412815
 H         2.3063551963        2.1266885839       -6.1867311699
 H         2.2138068351       -0.7836605715       -5.9981939593
 H         3.7362255640       -0.0173645029       -5.9230757556
 H         3.4518188214       -1.2694435852       -4.6987993485
 H        -1.6360138742        0.1460938451       -3.7085075378
 H        -0.9715589467       -1.1094671394       -2.7103102659
 H        -4.2434025880       -0.2618357097       -5.7555683098
 H        -4.7215093316       -1.9267460074       -6.0681009838
 H        -4.0212042616       -3.9103721714       -5.5576260314
 H        -4.8417093284       -4.0856571154       -4.1017279295
 H        -3.2328161531       -4.8030429192       -4.1302186509
 H        -2.9398993937       -1.9262185458       -1.8146853436
 H        -3.9031463307       -3.5573681143       -2.1345555351
 H        -2.0809536082       -3.5078766855       -2.1805240568
 H        -7.1785290402       -0.9431226811       -5.1994164829
 H        -6.2132961292       -0.1300958106       -4.1726386987
 H        -8.4296200642        3.0052105574       -8.5777496949
 H        -9.2810656770        1.9350905240       -9.5179871006
 H        -9.9676295209        2.4374781694       -8.0253450262
 H        -8.6571773406        0.7106052586       -4.2417489323
 H        -8.9384689171       -0.4071395023       -5.5542345316
 H       -10.0176898792        0.9902282086       -5.3728451944
 H        -8.8490747733        3.1901500127       -5.5167798173
 H        -7.0463618078        3.1016940595       -5.0883335178
 H        -7.5078873248        3.5970753480       -6.7547036420
 Na        2.4126612809        1.5681750342       -0.7886063220
