155

 C        -0.8124454991       -9.0015072172        5.5085381186
 C        -0.2577266102       -7.6552931375        5.0920559703
 C         0.5129173113       -6.8577687126        6.2066653959
 C         0.8700365638       -5.4156097651        5.6214529077
 C        -0.2025272284       -4.7327630403        4.7824183608
 C        -0.2960651307       -6.8603641683        7.5195437577
 C         1.8108020161       -7.6803211755        6.2932161521
 O        -0.4258428706       -7.2370561574        3.9747497280
 O         1.8943776329       -4.8276400695        5.9906654448
 C        -0.4991576928       -3.3547572509        5.2956998138
 C        -1.3198924182       -2.4634465699        4.3175931514
 C        -1.6586171486       -1.0663618531        4.9568828933
 C        -2.1195713393       -0.1343008212        3.6947271345
 C        -0.9694835442        0.5314954062        2.8432687992
 O        -1.6986172225       -2.6913838862        3.1969137717
 O        -3.2806408924        0.0754258925        3.5537099602
 C        -2.9405781702       -1.1890645807        5.7962138592
 C        -0.5793533608       -0.3060351248        5.8273083710
 C        -1.5849909175        1.4879169568        1.7607653297
 C        -0.4817642502        2.0149240544        0.8028168851
 C        -0.8615437512        3.2653696699       -0.1724068181
 C         0.4043738262        4.1604441838       -0.1634512510
 C         0.4508547897        5.4834999669        0.5781227179
 C        -1.1288051742        2.6068712243       -1.5612202130
 C        -2.1251124811        3.9825215503        0.3301445830
 O         0.4835133412        1.2667416964        0.5770511690
 O         1.3711058473        3.8294890100       -0.7793001665
 C         1.5869853466        5.6751928462        1.5807236138
 C         1.3852084653        4.5909958148        2.6849562734
 C         2.5329500599        4.4160560582        3.7816820346
 C         3.7807461805        3.8030047546        2.9256893177
 C         4.5135707359        2.4909996539        3.3981494978
 O         0.5006485162        3.7365348794        2.5448458706
 O         4.1351992844        4.3872961695        1.9146420293
 C         3.0057727321        5.7081337282        4.4457051879
 C         2.0363002766        3.4452541020        4.8642834652
 C         5.5458012572        2.0362233052        2.3876849711
 C         4.7953233427        1.2697540482        1.2391893183
 C         5.4217912578       -0.1876193207        0.6824458569
 C         4.8491134150       -0.2661133819       -0.7478852046
 C         5.6104627988        0.5257196875       -1.9031960832
 C         7.0331467412       -0.1935915182        0.5947371593
 C         4.9079120117       -1.2088989001        1.7357657000
 O         3.7221338511        1.6485473110        0.9153680503
 O         3.7179241735       -0.6723339457       -0.9781914030
 C         4.8940473270        0.3026900126       -3.2962486554
 C         3.5471111361        1.1202519810       -3.4385787331
 C         2.4047136037        0.6985598485       -4.3440652955
 C         1.1422095040        0.0560298715       -3.5722491218
 C         0.1639378754       -0.4500544397       -4.5332904546
 O         3.4281928702        2.1712688028       -2.7751993661
 O         1.0976118395        0.0575298674       -2.3431287418
 C         2.0112180774        2.0388027961       -5.0645872662
 C         2.9473254366       -0.2313217365       -5.4825870046
 C        -1.2235831901       -0.7978932598       -3.8090936593
 C        -1.9205561471       -2.0462151633       -4.4090119138
 C        -3.2236434304       -2.4807125773       -3.8486336499
 C        -4.3381725431       -1.2910827172       -4.0104309350
 C        -4.9584815581       -0.9155714344       -5.4247118651
 C        -3.6383902457       -3.8218170175       -4.5493420635
 C        -3.1296850768       -2.7177940393       -2.2387871561
 O        -1.5912438276       -2.5687611237       -5.4835416150
 O        -4.6236013674       -0.7199498126       -2.9769052343
 C        -6.4534860226       -0.4843076118       -5.5071039876
 C        -6.5653915686        0.9985492451       -5.9290266388
 C        -8.0358880947        1.6210979867       -6.0334371173
 C        -8.3539388274        1.1925214513       -7.5105725764
 C        -8.6047148081        2.1887635832       -8.6312178954
 O        -5.5987051696        1.6015102473       -6.3619007811
 O        -8.4138978389       -0.0060865106       -7.7446533810
 C        -9.1051297398        0.9747763626       -5.0107683004
 C        -8.0739950042        3.2358788998       -5.7755326533
 H        -0.2635894442       -9.5172215556        6.3488461496
 H        -1.7005718561       -8.6448702303        5.9903711379
 H        -0.8969761132       -9.6257056065        4.5820735640
 H         0.1996895280       -4.6535085938        3.7390801621
 H        -1.2101182812       -5.1889345197        4.7635854107
 H        -1.3156310253       -6.5316695116        7.3227633327
 H         0.1235262078       -6.1929737771        8.3080600966
 H        -0.3891931779       -7.8333448144        7.9519119608
 H         2.2297992709       -7.8585732364        5.2217059122
 H         2.5767434496       -7.1498217370        6.7680753900
 H         1.6998739446       -8.6111998855        6.7089712085
 H        -1.2177697980       -3.3691677057        6.1999966298
 H         0.3765010137       -2.7382863175        5.5027056058
 H        -0.1885407455        0.9885355015        3.4980473044
 H        -0.5126140591       -0.3698970858        2.2942694400
 H        -3.2156920944       -0.2114916486        6.1407393939
 H        -2.7147706676       -1.6743937310        6.7563459287
 H        -3.6433203440       -1.5907848171        5.1451904023
 H        -0.3677030452       -0.9125223573        6.6807932909
 H         0.2983702009       -0.1301266912        5.2207423211
 H        -1.0160151182        0.6552497509        6.0021104720
 H        -2.1106594183        2.3734268651        2.1963673618
 H        -2.2288301189        0.8880790300        1.1858414101
 H         0.5575835607        6.2161295919       -0.1805937302
 H        -0.4618553650        5.8248987087        1.0434491136
 H        -0.2272281311        2.1518363563       -1.8245540754
 H        -1.4339441837        3.3577972859       -2.3267137130
 H        -1.8125610450        1.7462776816       -1.4608410511
 H        -2.9877782168        3.3031494036        0.5056153358
 H        -2.0362347654        4.5655067586        1.2664936738
 H        -2.6334669886        4.6647002025       -0.3233835631
 H         2.5349243046        5.5789609293        0.9808807989
 H         1.6019580938        6.7124603874        1.9143414899
 H         4.8582478676        2.4502148781        4.4721543550
 H         3.8321202543        1.6661378873        3.5014757327
 H         3.3157514017        6.5716457687        3.7867365789
 H         3.7752960981        5.5147186563        5.1555087681
 H         2.0891545814        5.9539899065        4.9457294308
 H         1.2529024471        3.9790624681        5.3497898115
 H         1.6894531689        2.4954494482        4.4430976347
 H         2.8156144535        3.1115450256        5.5779161806
 H         6.2609504765        1.2995906493        2.7884735000
 H         6.1337761265        2.8403538137        1.9319090668
 H         5.6675246394        1.5262200852       -1.5675224330
 H         6.6180750608        0.1934525876       -2.0889476173
 H         7.4054608430        0.4993635862       -0.1399989445
 H         7.3570014809       -1.2107603480        0.2389262025
 H         7.4342882901       -0.1770142023        1.5610306901
 H         5.4488184940       -2.1070614038        1.7578134570
 H         4.9968747486       -0.7455227224        2.7605366751
 H         3.8243102497       -1.3631782261        1.6196829150
 H         5.5086479909        0.7864636816       -4.1004365218
 H         4.8918308566       -0.7939525079       -3.3628078726
 H        -0.0925212705        0.3028132519       -5.3116380494
 H         0.4870693945       -1.3364879033       -5.0399775813
 H         1.4779982667        2.8162111097       -4.4802599904
 H         1.3348257370        1.8504236731       -5.9059860737
 H         2.8180932929        2.5079793575       -5.5356880909
 H         2.3392712910       -0.1279299620       -6.3592565757
 H         4.0274983112        0.0549364106       -5.7877449904
 H         2.9833182423       -1.2281729059       -5.1888281135
 H        -1.8417586539        0.0654320851       -3.9189937983
 H        -1.0706337340       -0.9837652000       -2.7365282921
 H        -4.1862402470       -0.2059937162       -5.7989039640
 H        -4.8852067591       -1.7657426887       -6.0967429154
 H        -3.7636027552       -3.6016640753       -5.5611743783
 H        -4.6397460466       -4.2005061197       -4.2057094289
 H        -2.9182206360       -4.6461874899       -4.4584916332
 H        -2.6166482432       -1.8465227794       -1.8994306510
 H        -4.0926326378       -2.6848049009       -1.8939212423
 H        -2.5704959061       -3.6676380111       -2.0781514865
 H        -6.9716792581       -1.0983883307       -6.2075359037
 H        -6.9840286206       -0.8124031018       -4.5728225477
 H        -7.9041033453        3.0421978707       -8.5390154108
 H        -8.3617927751        1.8444008436       -9.6547686529
 H        -9.6505730667        2.5782308354       -8.7410743155
 H        -8.7934912636        1.2417445784       -3.9616409345
 H        -9.0757861428       -0.1090953382       -5.0319681828
 H       -10.0910385598        1.4480619002       -5.3077263232
 H        -9.0946033050        3.6878888689       -5.9666569795
 H        -7.7818178547        3.3212409644       -4.7776638935
 H        -7.2776455345        3.6192956525       -6.3757901949
 Na        2.2513586798        1.4392785834       -0.9735315296
