155

 C         0.2806222686       -9.1141955142        6.0754447715
 C         0.7851909413       -7.7146278922        5.8429572265
 C         1.2646980304       -6.9647099033        7.1763431059
 C         1.7007878328       -5.4487691667        6.8841238741
 C         0.8545413412       -4.6283434146        5.8525657313
 C        -0.0246912547       -6.9115788224        8.1588941887
 C         2.3391869950       -7.7666289050        7.9088385374
 O         0.8342392421       -7.2682954420        4.7082574629
 O         2.6573490828       -4.9644719463        7.4282475573
 C         0.7634396476       -3.1433266122        6.1576551604
 C        -0.3725942824       -2.5356703589        5.1682720975
 C        -1.0113370597       -1.1617704932        5.8579576568
 C        -1.6088766411       -0.3733402133        4.6854077872
 C        -0.8241588901        0.2906240799        3.4439121797
 O        -0.6186654144       -2.8830799609        4.0378814013
 O        -2.8354221696       -0.2594732434        4.6622205341
 C        -2.0200228399       -1.4699574125        6.9967162699
 C         0.1978453018       -0.4104757870        6.4509894675
 C        -1.8112264836        0.9389470282        2.4704432222
 C        -1.0742617786        1.3389970147        1.1498826954
 C        -1.2789917151        2.9127465965        0.5122695066
 C         0.1131140242        3.6464708853        0.4021705018
 C         0.1996587517        5.0421292646        0.9556995019
 C        -1.7358123260        2.8061464190       -0.9810666816
 C        -2.3203028945        3.7099987030        1.3109983158
 O        -0.3630838634        0.5600375770        0.5087988627
 O         1.0049101306        3.2537126569       -0.3193850829
 C         1.5899811357        5.6089969901        1.3003441843
 C         2.4289889303        4.6321771719        2.2610930926
 C         4.0460192432        4.7434731586        2.3781383793
 C         4.6489807439        3.4601471859        1.6565869180
 C         4.5675664559        2.1342786741        2.3904004442
 O         1.8865918245        3.7749222054        2.9329834068
 O         5.3602092288        3.5773383656        0.6986772618
 C         4.7035066531        5.8765277905        1.5881531279
 C         4.5419551139        4.7670028870        3.8283008826
 C         4.9288269746        0.8540248452        1.6515776714
 C         3.9614342998        0.5097511421        0.5052043886
 C         4.2682348208       -0.8198247296       -0.2093083349
 C         3.4733727654       -0.8735180590       -1.5326423802
 C         4.2421799836       -0.9788537831       -2.8451114680
 C         5.8392070357       -1.1163180738       -0.4573211156
 C         3.6355216304       -1.9298142362        0.7261864178
 O         2.9863107800        1.1991810879        0.2294405674
 O         2.2540888887       -0.7837947935       -1.5261900477
 C         3.4017956800       -0.6709289537       -4.0343582936
 C         2.9085758486        0.7977500880       -3.9193244148
 C         1.7119284789        1.1846994419       -4.9199747718
 C         0.2958095170        0.8846610953       -4.3591118229
 C        -0.8960491875        0.0853234262       -5.2494241993
 O         3.1950083455        1.6221660878       -3.1124708092
 O        -0.0697271433        1.0929379691       -3.2148335430
 C         1.7105434489        2.7201040435       -5.2291779474
 C         2.0206208589        0.6274498705       -6.3377407873
 C        -1.7508677171       -0.8155048805       -4.2901906222
 C        -2.6464944553       -1.8196953279       -5.0223393118
 C        -3.8681163368       -2.3788115329       -4.1559960001
 C        -4.9281036719       -1.2787387460       -3.9825661125
 C        -5.8309137813       -0.9593944163       -5.2444769331
 C        -4.4394336327       -3.6554653842       -4.9445371852
 C        -3.2786777270       -2.7964652881       -2.7813376399
 O        -2.4587126093       -2.3420363027       -6.0690454165
 O        -5.2044599916       -0.7794075802       -2.9305865582
 C        -6.8558908854        0.1741202288       -5.0638259100
 C        -6.3217599808        1.5479334272       -5.5515274863
 C        -7.4003866949        2.6894229873       -5.6286369358
 C        -8.0104325950        2.6390881051       -7.1627058287
 C        -6.9928808981        2.9262150677       -8.3270383476
 O        -5.1838478510        1.6192716176       -5.9430080692
 O        -9.1635236875        2.3962279891       -7.3930532818
 C        -8.5605821422        2.5100232267       -4.6837178029
 C        -6.7627303629        4.0832650983       -5.4843652598
 H         0.3967853843       -9.3149755780        7.1870077691
 H        -0.6998698665       -9.1478405862        5.6805391794
 H         0.8363125444       -9.8193164848        5.4936117474
 H         1.4125976199       -4.6759229364        4.9098072233
 H        -0.1346277055       -5.0969074875        5.7155965720
 H        -0.8165276456       -6.2189720310        7.8172793687
 H         0.4771392375       -6.6944850708        9.0635035090
 H        -0.6236012936       -7.8530606831        8.2992011674
 H         2.9765235876       -8.1308577503        7.2314343624
 H         2.7986955227       -7.0687997388        8.6342311872
 H         1.8793681394       -8.6540190596        8.4106054433
 H         0.4792684585       -3.0228607357        7.2051691917
 H         1.6657777798       -2.6883615709        5.9342948213
 H        -0.0808283951        0.9846293527        3.8324255716
 H        -0.2605092371       -0.4596454328        2.9472090904
 H        -2.4670789419       -0.5625770171        7.4218249679
 H        -1.4821177678       -1.8701979997        7.9122990820
 H        -2.7696289387       -2.0918985726        6.6109463832
 H         0.5477181932       -0.8331824216        7.4179427267
 H         1.0504417891       -0.2571518893        5.7431790941
 H        -0.0272195344        0.6663462049        6.5932054250
 H        -2.3285085898        1.8123960663        2.9698424198
 H        -2.5228915141        0.2418868479        2.1798716823
 H        -0.3865276655        5.7241010584        0.2731514355
 H        -0.3487895806        5.0393116210        1.9225413846
 H        -0.8663106425        2.3011581445       -1.4063910627
 H        -1.8395200225        3.8612573495       -1.3837587496
 H        -2.6089760307        2.1615909018       -1.1601399630
 H        -3.3492726627        3.2621651441        1.2488010433
 H        -1.9931277277        3.7146070653        2.3760074955
 H        -2.3429086560        4.6730318106        0.8492942499
 H         2.1533022678        5.6795626244        0.3111023623
 H         1.4484797936        6.6101557248        1.6205335421
 H         5.2895384213        2.1637737770        3.2679457502
 H         3.5814790817        2.0909118569        2.8410474577
 H         4.6312164806        5.8504488556        0.4971173519
 H         5.7017783384        5.9005963205        1.8917632706
 H         4.2154159346        6.7637863096        1.8931604008
 H         4.1879595919        5.6074859349        4.3331080800
 H         4.2156211195        3.8840681364        4.3725106714
 H         5.6312446579        4.6789469479        3.9014246651
 H         4.8690181116        0.0181053068        2.3406361307
 H         5.9339620311        0.9686113394        1.1845540820
 H         5.1105790419       -0.3625310814       -2.9195191104
 H         4.5962860971       -2.0275146040       -2.9334070531
 H         6.3880235983       -0.5161825849       -1.1384131904
 H         5.9702285559       -2.1240328074       -0.7573899033
 H         6.5129702658       -0.9973251882        0.4283100491
 H         4.0256004343       -2.8687495410        0.5776752160
 H         3.8845786693       -1.7056989293        1.7925098674
 H         2.5686025870       -1.8308253370        0.6388205739
 H         4.1902651269       -0.8122097612       -4.8708710961
 H         2.5324192806       -1.3274867979       -4.2216528700
 H        -1.6473465227        0.7412634864       -5.7597541154
 H        -0.2785073807       -0.5076458887       -5.9798553346
 H         1.2427043322        3.2735559183       -4.3995860016
 H         1.2235056620        2.9094554454       -6.1521940261
 H         2.7145330133        3.0275338409       -5.3944561725
 H         1.2266672137        0.7654336364       -7.0470093755
 H         2.9563693148        1.0714541905       -6.6175442333
 H         2.1727187895       -0.5322033051       -6.3851298304
 H        -2.2041543096       -0.0862623732       -3.5836633254
 H        -1.1054266391       -1.3063911862       -3.5806341211
 H        -5.3879060210       -0.7750226771       -6.2236584233
 H        -6.3628059783       -1.9672468715       -5.3655224016
 H        -4.4009556813       -3.5190184652       -5.9849853918
 H        -5.4968985658       -3.9052350618       -4.5945460262
 H        -3.8081564232       -4.5483881946       -4.6799814618
 H        -3.0168615974       -1.8203096104       -2.2534896842
 H        -3.9165591242       -3.3638981416       -2.0993036636
 H        -2.4221722220       -3.2749772753       -3.0369370103
 H        -7.7376957065        0.0285799607       -5.6722750235
 H        -7.2483927508        0.4637946721       -4.1226314032
 H        -7.1375020177        3.9784772059       -8.5845064744
 H        -5.9696403076        2.7418244522       -8.0339649812
 H        -7.3821127259        2.3367650554       -9.1355421701
 H        -8.2792529293        2.2825814926       -3.6812496292
 H        -9.0978272705        1.6726477769       -4.9231017512
 H        -9.1654616455        3.4307627152       -4.6140768677
 H        -7.4513931812        4.9708948634       -5.6601851126
 H        -6.3933396469        4.2427345797       -4.4627900046
 H        -5.9231751067        4.1964884416       -6.2565435056
 Na        1.0078821797        1.3019967512       -1.2391464676
