155

 C         0.5769677113       -9.2780685124        6.2373968783
 C         1.3416464648       -7.9124079868        6.2042862719
 C         1.5808432076       -7.1374231166        7.4467421272
 C         1.5603848399       -5.5675311178        7.1999079554
 C         0.6445351602       -4.8426160598        6.1689457566
 C         0.3160629943       -7.2920319091        8.3695009751
 C         2.8815764251       -7.5082574248        8.1389963761
 O         1.7423717003       -7.5336395383        5.1151222592
 O         2.3830407868       -4.8527077334        7.7392928665
 C         0.2624521081       -3.4082994124        6.6219494030
 C        -0.1587288527       -2.4429002069        5.4924245153
 C        -0.7101877190       -0.9524932138        5.9333885261
 C        -1.4487047261       -0.3465144827        4.7442397564
 C        -0.8427001218       -0.0576410960        3.3521705731
 O         0.2645701008       -2.4649243771        4.3207651694
 O        -2.6852916573       -0.3357007607        4.8725277046
 C        -1.5649437406       -1.0028188511        7.1666453987
 C         0.5971310328       -0.2128559801        6.1713008070
 C        -1.1553767902        1.4402354244        2.8827318009
 C        -0.7408097908        1.6778966345        1.4090713753
 C        -1.4370777184        2.9505859199        0.7077189310
 C        -0.1941769020        3.9280191522        0.5278935787
 C         0.2313493993        4.9887461313        1.6689698984
 C        -2.1268290046        2.6824048103       -0.6148386633
 C        -2.4608924252        3.6187719715        1.6648991702
 O        -0.0467879235        0.9513818727        0.7756585183
 O         0.6431731371        3.7842691133       -0.3837518821
 C         1.7559686613        5.3757305327        1.6186453937
 C         2.7585501761        4.3352680155        2.1093360044
 C         4.3744804523        4.5477750152        1.6241503410
 C         4.9806550624        3.1387733914        1.2622685554
 C         4.7834457718        1.9298474653        2.1785879340
 O         2.4711426045        3.5129601511        2.9899797877
 O         5.4886933574        2.8804254851        0.1849724543
 C         4.4764076200        5.5906928726        0.5301994322
 C         5.0736461692        5.0268948381        2.9324703607
 C         4.9873954078        0.6154174940        1.4290301300
 C         3.9084142229        0.2774576584        0.3507321118
 C         3.9205838843       -1.0284011905       -0.3401799097
 C         3.1461036543       -1.0467513414       -1.8086052129
 C         3.9395154411       -0.9480378295       -3.1214849759
 C         5.3235308448       -1.6627989390       -0.4952339380
 C         3.1568837400       -1.9722367789        0.6696178349
 O         2.9684767749        1.0469065135        0.1559166180
 O         1.9508422692       -1.1356076875       -1.8343778661
 C         2.9880286850       -0.6295889492       -4.2213078425
 C         2.3657234193        0.7440041479       -4.1371634769
 C         1.1624917442        1.1789860547       -5.1255529325
 C        -0.1013015869        0.6332713556       -4.2954161111
 C        -1.0287584687       -0.1174886905       -5.1289542453
 O         2.6232538255        1.5101009472       -3.2112293141
 O        -0.2819260214        0.9909237397       -3.1511295977
 C         1.1291086527        2.8281425355       -5.0779745276
 C         1.2495989646        0.5420979172       -6.5191076128
 C        -2.2790426942       -0.5617520210       -4.3367925652
 C        -3.1224691757       -1.5420293796       -5.1742112632
 C        -4.1909748380       -2.4433970486       -4.4412034341
 C        -5.2509790394       -1.4319077037       -4.0707724942
 C        -6.4310548852       -1.0462337070       -4.9621537596
 C        -4.6583016045       -3.5143108155       -5.3302700295
 C        -3.6139165146       -3.0493375959       -3.1839909594
 O        -3.0922599635       -1.3303523168       -6.3508802306
 O        -5.1178573417       -0.8254262680       -3.0612619543
 C        -7.0553130206        0.3901341955       -4.8341706486
 C        -6.2898870485        1.5002458815       -5.6395982410
 C        -6.9090483313        2.9502835035       -5.4797472965
 C        -7.6940980136        3.0515603263       -6.9885790500
 C        -6.8666730078        3.9654233334       -8.0900244288
 O        -5.3617547817        1.2351136019       -6.3911553220
 O        -8.5901033283        2.3447238368       -7.3052961411
 C        -7.9453526979        3.1597142221       -4.3420791618
 C        -5.6933357559        3.9274361074       -5.4964293625
 H         1.0854043413       -9.9124942353        7.0202301299
 H        -0.3586112951       -9.0405922210        6.7345361847
 H         0.6511091085       -9.7994334794        5.2703628644
 H         1.2378487312       -4.7993873914        5.2808630360
 H        -0.3553814119       -5.2019248229        5.9621692419
 H        -0.6302963178       -7.0206904648        7.8387023275
 H         0.3437791282       -6.6170207865        9.3369843162
 H         0.3332773699       -8.3341121563        8.6921427689
 H         3.6646044564       -7.2165700630        7.4915501762
 H         2.9255894110       -7.0262438230        9.0960761548
 H         2.8448940369       -8.5363922036        8.3641357450
 H        -0.4602881734       -3.2802258260        7.4035793439
 H         1.2341658496       -2.8644210119        6.8834188932
 H         0.2574001647       -0.1989302217        3.3626105224
 H        -1.3343342820       -0.6503667926        2.5857826237
 H        -2.1719955636       -0.0732880044        7.2917181797
 H        -1.1123709304       -1.2784305838        8.0856242104
 H        -2.2972696587       -1.8463923674        7.0138079970
 H         1.2131813616       -0.5147226979        7.0727756343
 H         1.3296205854       -0.3547048249        5.4025759975
 H         0.4706351552        0.8467484167        6.4057306471
 H        -0.6262588972        2.1697433004        3.4369118902
 H        -2.2963141384        1.5127355724        2.9746740824
 H        -0.4363666745        5.8533587451        1.5809947583
 H        -0.0837107352        4.6588468644        2.6731557909
 H        -1.4741034156        2.2069688079       -1.3154917798
 H        -2.5358038934        3.6225359340       -0.9808141961
 H        -3.0282698522        2.0297714319       -0.3071675347
 H        -3.3811815615        3.1505851093        1.3855370024
 H        -2.1846163629        3.4508442800        2.6407977277
 H        -2.4047122879        4.7022349739        1.5298831765
 H         1.9714034403        5.7229755788        0.6328337946
 H         1.9334014203        6.3425202225        2.2425620420
 H         5.4215235563        2.0028967309        3.0612145760
 H         3.8216242559        1.9895547944        2.7862457677
 H         4.0013423813        5.2706675557       -0.3708392833
 H         5.5096714272        5.7746124284        0.3308374914
 H         4.0933581843        6.5366519213        0.8558945446
 H         4.6452648405        5.9742535815        3.2462636269
 H         4.8365835825        4.3370332085        3.7315154582
 H         6.1212745684        5.2526955068        2.8232403253
 H         4.9671188993       -0.2219351312        2.1372642226
 H         5.8959323520        0.6294056080        0.8561426522
 H         4.7015735129       -0.2158349136       -2.8357229659
 H         4.4707033477       -1.7960984546       -3.4119911732
 H         5.9212226837       -1.1785559542       -1.2493491489
 H         5.1935213456       -2.7127787438       -0.8762275444
 H         5.7907249850       -1.7415201267        0.4243128871
 H         3.2227132743       -2.9944381370        0.2282129454
 H         3.4984944943       -1.8557169550        1.6493491647
 H         2.0854144227       -1.7129566749        0.5860753241
 H         3.5138492846       -0.6839244281       -5.1645351056
 H         2.1414194697       -1.3909058362       -4.0967727417
 H        -1.3798329994        0.4828000657       -5.9097379287
 H        -0.5094624396       -0.9392411250       -5.5681984497
 H         1.5939084796        3.2570219623       -4.1844292073
 H         0.0432484001        3.0753491531       -5.0231381848
 H         1.4439272097        3.1961383021       -6.0226749845
 H         0.3797391478        0.5622522153       -7.0498376164
 H         1.9846616399        0.8414196610       -7.2762855322
 H         1.4050593094       -0.5034347023       -6.3327689851
 H        -2.9056826696        0.3221548864       -4.1698546223
 H        -2.1649693093       -1.0876327344       -3.3455002385
 H        -6.1375937433       -1.2400508703       -6.0486667079
 H        -7.2648629035       -1.7034702129       -4.9349756738
 H        -4.9117995068       -3.1898764697       -6.3369099990
 H        -5.3781229780       -4.1423011085       -4.7873897536
 H        -3.7815800618       -4.1451324006       -5.5578197449
 H        -3.5119831147       -2.3573058928       -2.3163011882
 H        -4.1487464343       -3.8901884188       -2.8600758911
 H        -2.6566272292       -3.4812032324       -3.4478791648
 H        -8.0947029219        0.5578875590       -5.1540803340
 H        -7.1622654300        0.6091763728       -3.7656632756
 H        -6.5862038683        4.8702109438       -7.6827079093
 H        -6.0099859462        3.4954849772       -8.5317407335
 H        -7.6145983386        3.8627949379       -8.8666263347
 H        -7.5501091175        2.9758549584       -3.3583657094
 H        -8.8442905385        2.5905147570       -4.4929700162
 H        -8.2985969814        4.1532943301       -4.3400561679
 H        -5.9569062044        5.0330455481       -5.8242940208
 H        -5.2862358785        4.0173263761       -4.4640695406
 H        -4.9474975825        3.6184017086       -6.2725924909
 Na        1.1088188002        1.4462979867       -1.2377174495
