155

 C         2.1116874022       -9.1053153795        6.1740162871
 C         1.9943829825       -7.5069507101        6.3601089499
 C         1.7843903389       -6.8291691116        7.7657122091
 C         1.5470233132       -5.2686324754        7.6461835597
 C         0.5583354675       -4.8304865587        6.5859494708
 C         0.6233478496       -7.3818082270        8.5541513961
 C         3.1294245578       -7.1901411693        8.5284883371
 O         2.2562925534       -6.9034341023        5.3302204040
 O         1.9741003252       -4.5321777794        8.4891605777
 C        -0.0880005726       -3.4536812414        6.7272851647
 C         0.4065933609       -2.3779078787        5.7831995452
 C         0.2215673473       -0.8584310515        6.2351029587
 C        -0.9246003277       -0.5393726143        5.1114356345
 C        -0.3678679782       -0.0126264320        3.7703569182
 O         0.8831112055       -2.6018893342        4.6683473081
 O        -2.0750666869       -0.9322607174        5.2430866973
 C        -0.3243774434       -0.7133666602        7.7833306698
 C         1.5848145947       -0.1415383274        6.0842642657
 C        -1.2892867310        0.8709621328        3.0066006394
 C        -0.8245637101        1.3358002012        1.6574345345
 C        -1.0073408359        2.8420666321        1.2021016503
 C         0.2499136571        3.4381352505        0.5708987336
 C         0.7992637591        4.8596387173        1.1030856740
 C        -2.2514777402        2.8268372708        0.1893691069
 C        -1.4568486136        3.7029756086        2.3963233116
 O        -0.4781957469        0.5189716148        0.8241805299
 O         0.8118253208        2.9739558314       -0.3786656050
 C         2.3076285197        5.1598897442        0.8008347709
 C         3.2513890607        4.1834508087        1.4274370471
 C         4.7345869562        4.2572164593        0.8366101591
 C         5.0874198463        2.8432438031        0.2514061154
 C         5.1188187582        1.6275129229        1.2523204753
 O         2.8236394619        3.2999627050        2.1896851864
 O         5.2751246482        2.6463515150       -0.9395227185
 C         4.9482107460        5.1643270271       -0.3781526562
 C         5.6919554712        4.5536258889        2.0335615454
 C         4.9573882694        0.2920489557        0.5101264599
 C         3.4679983192        0.0553320990        0.0656541054
 C         3.0296097534       -1.4075256519       -0.4870534712
 C         2.4653154456       -1.1497304377       -1.9718300390
 C         3.3677852585       -0.3564368252       -3.0189422521
 C         4.2336192401       -2.4112780944       -0.6585882902
 C         1.8637537771       -1.8473655253        0.4441927636
 O         2.6925361002        0.9782115125        0.1353967805
 O         1.3540152434       -1.5790215304       -2.2350924314
 C         2.7685957079        0.0628329053       -4.3160768553
 C         1.7865262562        1.2185212268       -3.8575353325
 C         0.4422386364        1.4225637880       -4.6687756155
 C        -0.7096203355        0.5868972074       -3.9500468662
 C        -1.7820049814        0.0052569564       -4.9661559306
 O         2.0669525344        1.9725266599       -2.9492445405
 O        -0.7144252008        0.5130886854       -2.7569436606
 C        -0.0172322666        2.8903733464       -4.7213030744
 C         0.7166469100        1.0031773267       -6.0729032306
 C        -2.9026472716       -0.8419001755       -4.3285586273
 C        -3.5845058306       -1.7003121570       -5.3196160533
 C        -4.9753642731       -2.3387175722       -4.8718707132
 C        -6.0157073606       -1.1933714802       -4.3718750757
 C        -7.1032513986       -0.5583877139       -5.3592877688
 C        -5.4804520116       -3.0048923698       -6.2093074714
 C        -4.7064381902       -3.3652206524       -3.7045444901
 O        -3.1820530180       -1.8046860181       -6.4388340748
 O        -5.9405142311       -1.0005760091       -3.1903831171
 C        -7.2705278364        0.9207852888       -4.9904110332
 C        -6.0078029331        1.7493907153       -5.2867270314
 C        -6.1182726529        3.3025204027       -5.5281781706
 C        -7.2119889344        3.7059631291       -6.4700486916
 C        -6.5930612909        4.4528486681       -7.7677517075
 O        -4.9623877427        1.1327761092       -5.3142946137
 O        -8.3905871322        3.4821662207       -6.3795919995
 C        -6.5648252888        3.9502781986       -4.1893606891
 C        -4.7127966441        3.8021188455       -5.8955412738
 H         2.2034545457       -9.5791183533        7.1336390404
 H         1.2709801842       -9.3881835140        5.4822515865
 H         3.0219018643       -9.2500077888        5.5438207711
 H         0.9964171379       -4.8523017306        5.5880366522
 H        -0.1920275597       -5.5708788621        6.4497297195
 H        -0.1839012560       -7.3972562220        7.8403752511
 H         0.3795536442       -7.0272008953        9.6370851070
 H         0.6230642634       -8.4531157482        8.7084987463
 H         3.9576628886       -7.1334068789        7.8950247131
 H         3.2533964677       -6.5417763169        9.3857290038
 H         3.1369716100       -8.1941811600        8.8861205072
 H        -1.2074978201       -3.6438308581        6.5607554368
 H        -0.1613540965       -3.0905301671        7.7681124557
 H         0.5639975879        0.4124824262        3.9014323397
 H        -0.1546781711       -1.0480889104        3.2926492074
 H        -0.6020688718        0.2762961963        8.0210320845
 H         0.4807704323       -0.7808287016        8.4601383520
 H        -1.1519232514       -1.4379396253        8.0884047562
 H         2.2443306661       -0.2624546336        6.9402593084
 H         2.0900748568       -0.5127857710        5.1717501347
 H         1.6213724498        0.9418198460        5.8213536458
 H        -1.5238213290        1.7130710187        3.7514380897
 H        -2.2574158811        0.4780794918        2.8338060301
 H         0.1779020327        5.5948959674        0.5825874710
 H         0.7897657541        5.0204971782        2.2078063893
 H        -2.1569505910        2.1560601570       -0.6579935337
 H        -2.2199339427        3.8915091127       -0.0229024054
 H        -3.1287382189        2.6764349760        0.8889997643
 H        -2.5396426621        3.6058652696        2.5631581249
 H        -0.9800003147        3.3859524252        3.2896062333
 H        -1.2907606231        4.8156829378        2.1818065199
 H         2.4898513051        5.0787063396       -0.3201201340
 H         2.5035480084        6.1738928876        1.1469929914
 H         6.1323965670        1.6320148878        1.7900322015
 H         4.3057199921        1.7466447679        1.9857780370
 H         4.1719625574        5.0961092392       -1.0796504822
 H         5.9573550753        4.9371330210       -0.7878529063
 H         4.9841091744        6.1754474268        0.0227020467
 H         5.3014498013        5.5420424533        2.3798700549
 H         5.5982631178        3.8393238630        2.8051156377
 H         6.7002138806        4.5882439999        1.7333020716
 H         5.0633800435       -0.5691130138        1.1759035658
 H         5.6460685582        0.1022268294       -0.3084305412
 H         3.7183164397        0.4913547415       -2.4765874724
 H         4.2352286072       -1.0197810766       -3.2074063865
 H         4.8839793759       -1.9711333461       -1.4026985338
 H         3.8691720373       -3.3708259565       -1.0698465982
 H         4.8201988895       -2.4129524311        0.1360467271
 H         1.4622805771       -2.8661376598        0.2219025815
 H         2.0271328100       -1.8305281695        1.4748046554
 H         1.1286936713       -1.0994430655        0.1941376773
 H         3.5675055416        0.3993952065       -5.0088443619
 H         2.1660498094       -0.5789886757       -4.9207153945
 H        -2.1121458238        0.9236964890       -5.3812263386
 H        -1.3006707731       -0.4577922482       -5.7451407749
 H         0.3631596149        3.3254155889       -3.8583986285
 H        -1.0906095058        2.9362886635       -4.7671490269
 H         0.3531783799        3.3993647176       -5.5982818147
 H        -0.0234272616        1.3321048608       -6.6731638447
 H         1.5518678485        1.6559776177       -6.3364133394
 H         0.9032564382        0.0084292833       -6.3944420688
 H        -3.6872185116       -0.2193420840       -3.9230797706
 H        -2.3344616919       -1.4395306108       -3.5764602893
 H        -6.8075922899       -0.5239854213       -6.3884364986
 H        -7.9985142319       -1.1165161377       -5.1403671044
 H        -5.2594806884       -2.2426593992       -7.0461682258
 H        -6.5549517845       -3.2275435357       -6.2561604997
 H        -4.8796977649       -3.9145323377       -6.3459768508
 H        -5.3297956576       -3.1534660016       -2.8595475036
 H        -5.0032163128       -4.3456636309       -3.9334764264
 H        -3.7158856701       -3.4695067655       -3.2143801057
 H        -8.1639824185        1.3969973711       -5.4262200174
 H        -7.2834731819        0.9407897117       -3.8288366905
 H        -6.1444021070        5.3990520025       -7.6257135663
 H        -6.0811524790        3.6902775586       -8.3210571595
 H        -7.5594725067        4.6645179065       -8.2367090218
 H        -5.8008443539        3.9859081538       -3.4487926260
 H        -7.3695457833        3.3108433706       -3.7342931321
 H        -6.8696183009        4.9444052741       -4.3666110187
 H        -4.6285601560        4.9398132916       -5.8647638699
 H        -4.0878315150        3.4992934024       -4.9537488946
 H        -4.2903097835        3.3892483183       -6.8303215873
 Na        0.7278121531        0.8854929593       -1.1181303242
