155

 C         3.5271033077       -8.5011858971        6.4861550260
 C         2.6957624052       -7.1447381656        6.4945939090
 C         2.0335767987       -6.7716713092        7.7861248473
 C         1.5050037216       -5.2568942635        7.7515637894
 C         0.6366849633       -4.7765872345        6.5575290140
 C         0.8376121830       -7.7860692268        8.1065724930
 C         2.9727172009       -6.8370057012        8.9997256781
 O         2.5238076992       -6.5362327004        5.4645337051
 O         1.7729705100       -4.4466698568        8.6188590357
 C         0.0247227253       -3.3573653818        6.8177587647
 C         0.9665905610       -2.3617658817        6.1884523880
 C         0.8704663009       -0.8097313918        6.4380555929
 C        -0.2757906791       -0.2948662177        5.5506197771
 C         0.0331641904        0.5566328564        4.2615033521
 O         1.7070852818       -2.6502380115        5.2917591416
 O        -1.4312553294       -0.5581912542        5.7964654259
 C         0.3956319653       -0.5462469133        7.9301816412
 C         2.1950395579       -0.2702998481        6.1067631817
 C        -1.2301135211        1.1844562323        3.6511943412
 C        -0.9294819430        1.6150954107        2.2044981900
 C        -1.0610991967        3.1382160788        1.6345014188
 C         0.1758083938        3.4482814979        0.7143483542
 C         1.1566041831        4.5142974152        1.2110701428
 C        -2.3105451358        3.0120774361        0.6832748746
 C        -1.3298257063        4.1495020893        2.7277074798
 O        -0.8373825796        0.6879125825        1.4197874479
 O         0.2887130093        3.0103641499       -0.4419182957
 C         2.4514761426        4.5631703999        0.4391140413
 C         3.5979840804        3.8581029785        1.1434203453
 C         4.9290447444        3.8302935897        0.2921330097
 C         4.9423757088        2.2471242369       -0.1802403927
 C         5.0639180258        1.1638701459        0.9748061157
 O         3.4451306958        3.3001050166        2.2171744486
 O         4.7027952970        2.0132612478       -1.3182981602
 C         4.8290016094        4.7191590128       -1.0032849905
 C         6.0913134061        4.1132329062        1.2152846819
 C         4.8139830090       -0.2326521500        0.4240895579
 C         3.3428510886       -0.3172939037       -0.2030651671
 C         3.0124204452       -1.6316584514       -1.0971765410
 C         2.1549871806       -1.3305651610       -2.2708523547
 C         2.8832864681       -0.7486182943       -3.5696313850
 C         4.2280451120       -2.3999528201       -1.6688210745
 C         2.2711025811       -2.5366903986       -0.1130965214
 O         2.4704394318        0.3798109187        0.2711401044
 O         0.9634898612       -1.5031713015       -2.1809961239
 C         1.9413594253       -0.0990489303       -4.6347385399
 C         1.0337697426        0.9562462028       -4.0610100845
 C        -0.2762045434        1.4483779488       -4.7186619771
 C        -1.4285953730        0.3700656213       -4.0207253878
 C        -2.1845828350       -0.4630890088       -5.0995174571
 O         1.4936469469        1.4656905032       -2.9972748516
 O        -1.5697401926        0.2838479566       -2.8367589983
 C        -0.6049469372        2.8534398848       -4.1225847439
 C        -0.3590546570        1.4899720248       -6.2415321715
 C        -3.1081309883       -1.5391221202       -4.4935604449
 C        -4.1216266130       -2.1637093722       -5.4487605844
 C        -5.6029385742       -2.4790972205       -4.9254284760
 C        -6.0995264122       -1.0819265848       -4.4667366667
 C        -6.1860088849        0.0262022526       -5.5128114905
 C        -6.4066154119       -3.0772479499       -6.1608752871
 C        -5.4989558769       -3.3990561606       -3.6971403035
 O        -3.7985267872       -2.1715429497       -6.6244383781
 O        -6.4473920256       -0.9247115204       -3.3083890932
 C        -5.9761333509        1.3702036418       -4.8422504948
 C        -5.1763519833        2.4811039946       -5.5442323730
 C        -5.5953104754        3.9496759404       -5.2192181210
 C        -6.8465218064        4.1453470931       -6.2104458594
 C        -6.7095243303        4.3382907750       -7.6871769629
 O        -4.4607893272        2.1999631080       -6.5216427380
 O        -7.9252441265        4.2390367775       -5.6023530997
 C        -6.0966397414        4.2647171010       -3.7207510209
 C        -4.5029332764        4.9088258620       -5.6421358803
 H         4.4635162680       -8.3600941131        5.9183031288
 H         3.5926906701       -8.7821488058        7.4700452143
 H         2.8874217648       -9.1328608231        5.9751943543
 H         1.4054309062       -4.6303201239        5.7568774379
 H         0.0012390249       -5.5578556248        6.1861119365
 H         0.0315984478       -7.7243240707        7.4153206461
 H         0.2409951633       -7.6856195978        8.9892747064
 H         1.2345029799       -8.7611925210        8.0658183481
 H         3.9329124136       -6.2864260512        8.9002102462
 H         2.5508297278       -6.3543268562        9.8828568043
 H         3.2219712717       -7.8633092875        9.4064968946
 H        -0.9521063765       -3.5570251053        6.4287453259
 H        -0.1504968409       -3.2786340807        7.8654011600
 H         0.7727785762        1.2707139144        4.3542998648
 H         0.5728155867       -0.1734079860        3.5642590741
 H         0.4015148239        0.5276719928        8.0808722717
 H         0.9347823945       -1.1643676325        8.6210540406
 H        -0.6700575712       -0.7628946247        8.0249372810
 H         3.0025980917       -0.7722966000        6.6881772630
 H         2.4251930862       -0.6078722237        5.1377518628
 H         2.3180387112        0.7898300894        6.2169524791
 H        -1.5647707209        1.9999158053        4.3508344984
 H        -1.9816132116        0.4517264495        3.5293452646
 H         0.6197797443        5.4005275373        0.9438894089
 H         1.5221952496        4.4953119497        2.2750304406
 H        -2.1147884903        2.2402790724       -0.0228994413
 H        -2.3626016286        3.9914416590        0.3210736971
 H        -3.1691824281        2.8633329279        1.3401197526
 H        -1.9970736006        3.9427176717        3.5681471986
 H        -0.4329496333        4.4637477302        3.2794811055
 H        -1.6102068793        5.1477194451        2.3247088391
 H         2.3128943903        3.9686024892       -0.4817008398
 H         2.7746556284        5.5760664669        0.1462015920
 H         6.1696474346        1.1418688888        1.1037927633
 H         4.3818710260        1.4907476049        1.7731577204
 H         4.0402247189        4.3463733255       -1.6542439847
 H         5.7211347872        4.6117518301       -1.5985288530
 H         4.7190813797        5.7624161196       -0.7215621310
 H         5.9161664788        5.1538578206        1.5789975804
 H         6.0568581289        3.4694889432        2.0964377242
 H         7.0294781271        4.1641242474        0.7074589956
 H         4.8854868021       -1.0187255940        1.2080320785
 H         5.5121070525       -0.4697898710       -0.3565659048
 H         3.3802145651        0.0878818661       -3.1001244248
 H         3.5772612050       -1.4611973173       -4.0142224008
 H         4.9362503028       -1.6763317137       -2.0275915413
 H         3.9819640798       -3.1264718114       -2.4499703475
 H         4.6013703953       -3.0698528445       -0.8412313791
 H         2.0664481833       -3.4994661395       -0.6520366973
 H         2.7059622286       -2.6958666434        0.8455866215
 H         1.2493792496       -2.1138672033        0.0317717090
 H         2.4750158497        0.4906868163       -5.4475292988
 H         1.2507942638       -0.7342950189       -5.2520017636
 H        -2.8217702251        0.3533817516       -5.5990273171
 H        -1.4344042215       -0.8245737717       -5.8227481138
 H        -0.1960220667        2.9783448961       -3.0596427056
 H        -1.7195250880        3.0854256729       -4.2038112203
 H        -0.1086645737        3.5288489847       -4.8177559011
 H        -1.2766910427        2.0307110376       -6.5973714493
 H         0.4297818557        2.1017949257       -6.5240208719
 H        -0.1618978312        0.4759151275       -6.7326220320
 H        -3.7036177603       -1.0293777438       -3.7296949028
 H        -2.5889856760       -2.4694279326       -3.9998237268
 H        -5.4691674807       -0.0492841064       -6.3836817057
 H        -7.1993396184       -0.0070895709       -5.8901073480
 H        -5.8771288440       -2.8162617501       -7.0111162709
 H        -7.4827521603       -2.8802059133       -6.1942318202
 H        -6.3510380386       -4.1777763032       -6.0958568403
 H        -6.2196486342       -4.2964059676       -3.7073374011
 H        -4.5894763876       -3.9466962710       -3.5723967461
 H        -5.6693063989       -2.9625259648       -2.7766469640
 H        -6.9439534081        1.7619173833       -4.7277239180
 H        -5.4803184690        1.2419386001       -3.8690177591
 H        -5.7985385855        4.9319377560       -7.8672325948
 H        -6.2780132301        3.3107745513       -7.9358333397
 H        -7.6265071466        4.6477339259       -8.2311806466
 H        -5.1993753399        4.3384825366       -3.0834728989
 H        -6.8087684505        3.5424890992       -3.3630811525
 H        -6.6530796697        5.1945842041       -3.7500957899
 H        -4.9118420020        5.8944634079       -5.8110179372
 H        -3.7234745651        4.8892604571       -4.9914902678
 H        -4.0306813747        4.6108629585       -6.5924211443
 Na        0.0603389566        0.5780194321       -0.9435831970
