155

 C         5.0016046979       -4.1494178116        7.5299407425
 C         4.2946285845       -5.4067104045        6.9555242639
 C         2.8582774235       -5.7397581832        7.4893346597
 C         1.8989781413       -4.4722644452        7.4591318311
 C         1.1976180494       -4.0047772540        6.0560121898
 C         2.1984992790       -6.9247763051        6.6668987092
 C         3.0557309741       -5.9865864164        9.0253621550
 O         4.7612764346       -6.1353200253        6.1315909858
 O         1.7197402315       -3.8556909197        8.4806710953
 C         1.1639034518       -2.5109381498        5.8078113411
 C         2.6228915959       -1.8985707635        5.5048999877
 C         2.7749827752       -0.3780125163        5.8770484726
 C         1.5910751365        0.4295059868        5.3904731359
 C         1.3011537307        0.3649736387        3.9122724357
 O         3.5180784609       -2.4688971584        4.9399158851
 O         0.8797855219        0.9784422201        6.2179518464
 C         3.0408769502       -0.3096942282        7.4006805527
 C         4.1206281933        0.2276037619        5.3040439591
 C        -0.1167015258        0.9035692455        3.6089077440
 C        -0.4365606782        0.8102258933        2.1594520600
 C        -0.9135614092        2.0832787700        1.3660078869
 C         0.4461934259        2.5135353250        0.6227005002
 C         1.3533352132        3.6138799049        1.3107325599
 C        -2.1547269603        1.6817947968        0.3215582674
 C        -1.4366614449        3.1914281854        2.3182596116
 O        -0.2030014713       -0.1627521417        1.5033923202
 O         0.7077036254        1.9887534900       -0.4162941509
 C         2.8404682978        3.6606397671        0.8125027032
 C         3.6554066258        2.3695217313        1.0466129977
 C         4.8007486103        2.0446003894        0.0752380181
 C         4.6666202437        0.5923591544       -0.6313441213
 C         4.8562007815       -0.6211287590        0.2694743529
 O         3.4596297515        1.6709151421        2.0373599475
 O         4.4846606814        0.5251250075       -1.8261068849
 C         5.1609169080        3.0366643437       -1.1581967592
 C         6.1351867488        1.9417629134        0.9190285157
 C         4.5672488178       -1.9605760697       -0.4230860235
 C         3.1002490755       -1.9302468963       -0.8305188334
 C         2.5834158405       -2.9219736959       -1.9956541485
 C         1.5049300946       -2.1742768229       -2.8748855953
 C         1.6563585439       -1.5523495788       -4.3223976438
 C         3.6526872352       -3.5297589596       -2.9064173483
 C         2.0611945683       -4.0640434062       -1.1324535684
 O         2.2553766238       -1.2323036789       -0.2528992333
 O         0.3447889025       -2.2933289510       -2.4868153576
 C         0.3594090970       -0.8029680807       -4.8205996097
 C         0.0480897837        0.4483780208       -3.8756308704
 C        -1.2821981811        1.1456910551       -3.9747591802
 C        -2.3451930697        0.1396169380       -3.1953746818
 C        -3.6193719558       -0.1160290599       -3.8300340984
 O         0.8296553785        0.7211539073       -2.9575803379
 O        -2.0340897104       -0.4210856895       -2.1419348609
 C        -1.2647302822        2.4006464393       -3.1164073789
 C        -1.7042963459        1.4675096092       -5.4407922038
 C        -4.6813268438       -0.9705067799       -3.1332189943
 C        -5.8123753077       -1.2693800388       -4.2309415431
 C        -7.3915840880       -0.7868202682       -3.9920505318
 C        -7.2220426117        0.7054867445       -4.3993532209
 C        -7.9625773860        1.4037729407       -5.6089414025
 C        -8.4194670355       -1.6876059500       -4.6567121246
 C        -7.6655734951       -0.7438993230       -2.4365075881
 O        -5.5860429032       -1.8525854100       -5.2434063318
 O        -6.3567754592        1.4198326180       -3.8925402967
 C        -7.6989070690        3.0017442083       -5.6271608488
 C        -6.2500626907        3.3032579772       -5.8418240350
 C        -5.6889421897        4.6294347949       -5.0219640953
 C        -6.5745774947        5.8858757979       -5.4444069997
 C        -6.1438118084        6.4181963950       -6.9029389935
 O        -5.4983487085        2.6433532003       -6.5785500240
 O        -7.4936616568        6.3108477381       -4.7896431983
 C        -5.7503588869        4.3255957076       -3.5440476489
 C        -4.1461276604        4.8241964081       -5.3309751080
 H         4.2905808075       -3.8637557259        8.3816282266
 H         6.0374081197       -4.4467860500        7.8098730539
 H         5.0146963658       -3.2506730830        6.9236464923
 H         1.8827910993       -4.5459597337        5.3451121687
 H         0.1305702352       -4.3571487156        5.8860929858
 H         1.8981576515       -6.3465736053        5.7697606497
 H         1.3708094025       -7.3040256341        7.2907951931
 H         2.9077706561       -7.6940713725        6.4970823508
 H         3.1087829751       -5.0181918127        9.6368776452
 H         2.1631975921       -6.4738767109        9.3918194237
 H         3.8614701986       -6.7452447562        9.0215891517
 H         0.6019601616       -2.1409823845        4.9800518159
 H         0.8471128221       -1.9348542114        6.7095776551
 H         2.0418682729        1.0006395399        3.3291397737
 H         1.3214246127       -0.6677041560        3.6160313397
 H         3.2026108162        0.6414732205        7.9060843087
 H         3.8666371638       -0.9277252181        7.7266330821
 H         2.1640869615       -0.8168763606        7.8477846113
 H         5.0022170436       -0.2200513134        5.7533720228
 H         4.0735982825       -0.0048904300        4.2887001272
 H         4.0654801299        1.2962278161        5.3916326791
 H        -0.3185350290        1.7552049186        4.1401016300
 H        -0.8252304737        0.1199989399        4.0370375398
 H         0.8824656714        4.5166557397        0.9806989404
 H         1.2763169656        3.3766123464        2.3548064560
 H        -1.9272093506        0.8166702824       -0.3260242422
 H        -2.3915351498        2.6085840106       -0.2124632665
 H        -2.9852303058        1.6283731718        1.1042876711
 H        -2.3565774364        2.7777830229        2.6735850034
 H        -0.7768177287        3.4679646364        3.0797926162
 H        -1.5481403505        4.1198573203        1.7371342767
 H         2.9063335164        3.9291964971       -0.1987911986
 H         3.3779685824        4.4423421324        1.3919239300
 H         5.8563924674       -0.6603377095        0.7684685892
 H         4.0355273988       -0.6289870787        1.0297169610
 H         6.1848185492        3.4272301899       -1.1112162692
 H         4.4513746323        3.8779518776       -0.9807813886
 H         4.8693466831        2.5006158188       -2.0632662398
 H         6.5583460917        2.9322289132        1.2283288046
 H         6.0019155771        1.3761279792        1.8264108689
 H         6.8968733590        1.4296409996        0.3331588163
 H         4.6803956122       -2.8276308512        0.1652775998
 H         5.2717228963       -2.2336122266       -1.2714716946
 H         2.4307539064       -0.7581081988       -4.3598408184
 H         1.9084881375       -2.2830890417       -5.0609395483
 H         4.3118884471       -2.8577290608       -3.3616685258
 H         3.2352654822       -4.1148223170       -3.7034323679
 H         4.2186866077       -4.3262630546       -2.3483933958
 H         1.7458872946       -4.8948229459       -1.8185668031
 H         2.7849724416       -4.4100469261       -0.4562465972
 H         1.2506078038       -3.6913300352       -0.4919609773
 H         0.7486517992       -0.3387208461       -5.7397185523
 H        -0.3916999321       -1.5620205274       -5.1157973402
 H        -4.2089953555        0.7242639114       -4.2074452139
 H        -3.3786764110       -0.5513968565       -4.7858538683
 H        -1.4253972406        2.1438495754       -2.0791045899
 H        -2.0885335151        3.1018564861       -3.3981905500
 H        -0.3890192400        2.9696597692       -3.0423368300
 H        -2.7384160756        1.7882122411       -5.5472674550
 H        -1.0496347609        2.3615074160       -5.6651178818
 H        -1.5463068863        0.6941493543       -6.0625070007
 H        -4.9604724950       -0.5571448302       -2.1588639394
 H        -4.1557746112       -1.9949075891       -2.8631176005
 H        -7.5722772672        0.9780383735       -6.6041466446
 H        -9.0488890927        1.2356797725       -5.6588506692
 H        -7.9156135602       -2.3145648302       -5.3000498091
 H        -9.2461027107       -1.0688512463       -5.0933668915
 H        -8.8430243627       -2.3449073719       -3.8383391559
 H        -7.0134079717        0.0464690529       -2.0226407456
 H        -8.7272780750       -0.3666098904       -2.2992188070
 H        -7.4144855412       -1.7619990405       -2.1241176326
 H        -8.1875916616        3.3860685701       -6.5108120455
 H        -8.2288419683        3.4304041647       -4.8102352890
 H        -5.1078726845        6.3332883269       -7.0445573290
 H        -6.4836432061        5.7270741898       -7.6774082060
 H        -6.4648292253        7.3333823938       -7.3027381295
 H        -4.8274387405        3.8763393733       -3.1717585835
 H        -6.5560503771        3.5874080539       -3.2360816979
 H        -6.0658112596        5.2568880958       -3.0306112887
 H        -3.9093635593        5.8992125930       -5.0360061017
 H        -3.6879550220        4.1297726035       -4.6512025994
 H        -3.7447101134        4.7197192302       -6.4253171576
 Na        0.2883944726       -0.2529364436       -0.9626327057
