155

 C         5.5714169205       -4.2914204696        7.7811123265
 C         4.6433786232       -5.1788314909        6.9978423362
 C         3.3340057696       -5.7118873073        7.7667582216
 C         2.4392991092       -4.4488658864        7.4993408451
 C         1.9529591620       -4.2160455125        6.0821529549
 C         2.8656320449       -6.9764463448        7.0589779728
 C         3.4587149724       -5.8617965501        9.3454672722
 O         4.9158394443       -5.4487877632        5.8257539396
 O         2.1582440607       -3.7148944413        8.4288938924
 C         1.7612154908       -2.6933439554        5.8409590525
 C         3.1241909774       -2.0421650632        5.5390842167
 C         3.1642329144       -0.4364158284        5.4910046450
 C         1.6592735645        0.1586928069        5.1816211619
 C         1.1613488098        0.0491844795        3.7306908908
 O         4.1689473269       -2.6654528990        5.5910100592
 O         0.9485764881        0.7273508913        5.9618301348
 C         3.6217010630        0.0496996539        6.9116737269
 C         4.2015925201       -0.0423867336        4.4043583843
 C        -0.2946898018        0.3960362138        3.5094636909
 C        -0.6711044978        0.8187944572        1.9969767262
 C        -0.7264689008        2.3109200058        1.5536693442
 C         0.4216968895        2.5474288943        0.4936146083
 C         1.6095952143        3.3592048930        0.8340819921
 C        -2.1145974158        2.4083152508        0.8986212185
 C        -0.6039941127        3.3304243886        2.6734670876
 O        -0.7335232298       -0.0507432779        1.1459129181
 O         0.4297256526        1.9322077041       -0.5665482431
 C         2.9007139078        3.0908547664        0.1625551131
 C         3.8333045778        2.2107417783        1.0185728998
 C         5.1882014228        1.8610460071        0.4432470905
 C         4.7837618521        0.6773098649       -0.6652305296
 C         4.6778001706       -0.7224216130       -0.0405680726
 O         3.3896099184        1.7070578878        2.0237056854
 O         4.4492294553        0.9871660637       -1.7638503197
 C         6.0104001509        3.1026825427       -0.2509297207
 C         6.1358680984        1.3588407068        1.5102822695
 C         4.3048169276       -1.9080487868       -0.9379872235
 C         2.7628331130       -2.0140205267       -1.1753121959
 C         2.2256372453       -3.2194210723       -1.9967217596
 C         0.9074039959       -2.8282373657       -2.9224135629
 C         1.1618291192       -2.4471731491       -4.4221725654
 C         3.3697590496       -3.9315028313       -2.7563944742
 C         1.6698836213       -4.2125148749       -0.8819766655
 O         2.0560465057       -1.1615160080       -0.6776521586
 O        -0.2509444050       -2.9009438834       -2.5193466582
 C        -0.0229456627       -1.5757861450       -5.0225854196
 C        -0.1506092744       -0.2836227254       -4.2069150644
 C        -1.2138953902        0.7657404461       -4.5299768122
 C        -2.5173006090        0.2065697152       -3.6360772114
 C        -3.8170942295       -0.2077549289       -4.3147786973
 O         0.5954431835       -0.0383259302       -3.3081527913
 O        -2.4458362041        0.1884897799       -2.4336628236
 C        -1.0076838624        2.1875027319       -3.8715898809
 C        -1.6504540834        0.8287931067       -6.0135162518
 C        -4.9841085881       -0.3977739747       -3.2268423248
 C        -6.2989873731       -0.8651244832       -3.8863437395
 C        -7.5874395370       -0.2915669925       -3.2577050842
 C        -7.3455906191        1.2571932840       -3.5862211716
 C        -7.9678661381        1.8206288188       -4.9610418903
 C        -8.7672026732       -1.0630400408       -3.8732944147
 C        -7.6832825780       -0.3682942591       -1.6081309513
 O        -6.3262330711       -1.7106117482       -4.7809045724
 O        -6.5996922187        1.9303658980       -2.9127936159
 C        -7.6332457586        3.3425600089       -5.0419489267
 C        -6.1646743040        3.5953710120       -5.3191110683
 C        -5.6715747734        5.1404889770       -4.9576352678
 C        -6.5972230576        5.9885311205       -5.9410067274
 C        -6.3054118818        6.4379762318       -7.3114149130
 O        -5.4094101047        2.8928300929       -5.9270587035
 O        -7.7417302306        6.2626110676       -5.5533720258
 C        -5.8982333020        5.4871777973       -3.5457848423
 C        -4.1978395644        5.3907424304       -5.4395742854
 H         5.2750487081       -3.3089074123        7.9867352036
 H         5.7593641101       -4.7774242963        8.7586810195
 H         6.4657713009       -4.2356064344        7.2029861917
 H         2.7011491480       -4.6529324764        5.4564553957
 H         1.0312674657       -4.7268307780        5.9500854641
 H         2.5168543771       -6.6103118661        6.0669445760
 H         2.0523237118       -7.3890839391        7.5447493483
 H         3.7445361527       -7.6278548463        6.8445962346
 H         3.4356440260       -4.9798881813        9.8216314127
 H         2.7263698668       -6.6172952700        9.6267609198
 H         4.4028439044       -6.2879378569        9.4930109839
 H         1.0279515720       -2.4901929415        5.0609377713
 H         1.3872981949       -2.3118750895        6.8235011186
 H         1.7744307924        0.7718818337        3.1395394903
 H         1.3695033921       -0.8929814461        3.2099955010
 H         3.6347088970        1.1039104373        7.2411326187
 H         4.5839012717       -0.4399138006        7.0999053757
 H         2.9991228010       -0.3138682729        7.6740966915
 H         5.2378520589       -0.4747924201        4.6456728103
 H         3.9315179919       -0.4436775524        3.4199515004
 H         4.3023028075        1.0592428489        4.3181153589
 H        -0.5646000254        1.1099280692        4.2465311810
 H        -0.9127899515       -0.5006854460        3.6497800498
 H         1.3258729736        4.4259455118        0.6122214544
 H         1.7218026651        3.2319906958        1.9221238986
 H        -2.2979338825        1.5419109996        0.2792458734
 H        -2.1463231758        3.3398712134        0.3975558521
 H        -2.8026588920        2.3397212337        1.7233612765
 H        -1.3875328915        3.2190420914        3.4075375153
 H         0.3510992393        3.1801135418        3.1790609711
 H        -0.8047042472        4.3485039497        2.2907925847
 H         2.7529832792        2.5973442078       -0.8046867351
 H         3.5144451547        3.9657772783       -0.1316485781
 H         5.6456808029       -0.9861835965        0.3819529594
 H         3.8785005396       -0.7475801810        0.6914308757
 H         5.5332157607        3.1156299750       -1.2250845376
 H         7.0294090546        2.8027782172       -0.3085487160
 H         5.8305205344        4.0379745458        0.2788990908
 H         6.5392268977        2.1366976349        2.2212301417
 H         5.7521540066        0.5478622134        2.1189900749
 H         6.9649848190        0.9387318151        0.9928474823
 H         4.6454555631       -2.7897966726       -0.5188540635
 H         4.8517850360       -1.8489510836       -1.9210480431
 H         2.1495636316       -1.9269607961       -4.5617763642
 H         1.1030815931       -3.4009399693       -4.9677071066
 H         3.8384351590       -3.3499266324       -3.5989467301
 H         2.9108583062       -4.8072988471       -3.1058577359
 H         4.1972803589       -4.2069085047       -2.0803190749
 H         1.5980501374       -5.2194773823       -1.3582024673
 H         2.2787097778       -4.2859571012        0.0037628088
 H         0.6253700123       -3.9162379961       -0.7925352015
 H         0.1588452141       -1.4172147753       -6.0731624734
 H        -0.8878030965       -2.2404457576       -4.9329707310
 H        -4.1913149175        0.4541681460       -5.0560685963
 H        -3.7540349582       -1.1010754586       -4.8500963457
 H        -0.6639256691        2.9858613706       -4.5741995133
 H        -0.1966432825        2.0417213652       -3.1656340762
 H        -1.8841227371        2.5389844363       -3.3238187661
 H        -2.0845191218        1.7481903805       -6.1565620677
 H        -0.8259914492        0.6883265269       -6.6883253191
 H        -2.3123471193       -0.1001953043       -6.1981652564
 H        -4.9957402101        0.5484504390       -2.6962256222
 H        -4.7139610006       -1.1679475678       -2.5027312063
 H        -7.7227608995        1.2699577332       -5.8781316673
 H        -9.0142163869        1.7212444759       -4.8824446750
 H        -8.4715434740       -2.1145274160       -3.9756187573
 H        -8.8725419344       -0.7326985482       -4.8961076897
 H        -9.7068715902       -0.9095238947       -3.3141294032
 H        -6.9141141986        0.1402127634       -1.1835299264
 H        -8.6804223832       -0.0593924506       -1.3642535999
 H        -7.7087583593       -1.4300259713       -1.3846738678
 H        -8.2895061310        3.9252966988       -5.7491648371
 H        -7.9258870931        3.7418532013       -4.0592439900
 H        -6.5052580338        7.5269434027       -7.4900817317
 H        -5.3294568268        6.2164764878       -7.8078929711
 H        -7.0724659572        5.9354073355       -7.9496502731
 H        -4.9383528064        5.3919235797       -2.9434623074
 H        -6.6133847311        4.9053325206       -3.0710945651
 H        -6.1621657687        6.5368857127       -3.3692144704
 H        -3.9728619868        6.4436093965       -5.5326104621
 H        -3.4520776423        5.0911836722       -4.7452415979
 H        -4.0593554249        4.7935115420       -6.3295356092
 Na       -0.2472801487       -0.5686766411       -1.2456443527
