155

 C         6.6563440534       -5.1345914048        8.0743999166
 C         5.4412315859       -5.7609129716        7.3158446847
 C         4.0952917331       -5.9286722663        8.1648774822
 C         3.4057616510       -4.5230079164        7.8972179334
 C         2.6106142927       -4.2367560384        6.6565187814
 C         3.1508606788       -7.0145228937        7.7030294818
 C         4.3475393100       -6.1008818632        9.6827776025
 O         5.3132144979       -5.9422283329        6.1162847158
 O         3.7357893547       -3.6787095919        8.7093001806
 C         2.1927822507       -2.7747732445        6.3393864974
 C         3.1795876619       -1.8748343236        5.6423282362
 C         2.8561283438       -0.3440846044        5.4863719829
 C         1.4668174425       -0.1782206370        4.7237116975
 C         1.3763088657       -0.5355110088        3.2646327377
 O         4.2150241756       -2.2771132547        5.1631526039
 O         0.5632502205        0.3105986044        5.3719970531
 C         2.6700803557        0.1898459167        6.9066855572
 C         4.0034916613        0.2692049082        4.7490121238
 C        -0.0775520263       -0.2871385230        2.8620145813
 C        -0.2708822742        0.4869849257        1.5395893803
 C        -0.0925676882        1.9674359604        1.3890239446
 C         0.9305071820        2.3012752403        0.0617569576
 C         1.8178263998        3.5762154938        0.1808515337
 C        -1.4955867499        2.4789246983        0.9115097115
 C         0.3015624046        2.6653832026        2.6966552171
 O        -0.7839515460       -0.2091478655        0.6014786943
 O         0.9608863279        1.5958182003       -0.9290836662
 C         3.2011610076        3.2410041290       -0.3360746797
 C         3.9420988312        2.1583047164        0.5837686232
 C         5.3467926690        1.8162111788        0.1238136491
 C         4.9879457161        0.6318652493       -0.8258558623
 C         4.2246980444       -0.7007228866       -0.2647457150
 O         3.3761727502        1.6120961104        1.5100066592
 O         5.1768905099        0.7138571944       -2.0226868612
 C         6.2170203030        2.9130281999       -0.6754046967
 C         6.0657487631        1.5229450055        1.4379842370
 C         3.6764320632       -1.5400278988       -1.4408487155
 C         2.2972524483       -1.9801453253       -1.1153054843
 C         1.6394246366       -3.3588139987       -1.8073465513
 C         0.4938651319       -2.8834650176       -2.7563953864
 C         0.5980570699       -3.0288832666       -4.3342086756
 C         2.6029616620       -4.3132561750       -2.5800645922
 C         0.9595597775       -4.1320131105       -0.5841063615
 O         1.5574066539       -1.2990179657       -0.3947635713
 O        -0.5812173300       -2.6376287193       -2.2200667293
 C        -0.5204028199       -2.3389851041       -5.1322681630
 C        -0.5676032307       -0.8568298724       -4.7215251801
 C        -1.8075887601        0.0989898084       -5.1265032808
 C        -2.7703024953        0.1736286289       -3.8845847444
 C        -4.2334740691        0.1999534273       -4.1934682465
 O         0.3337095043       -0.3715870768       -4.0743817229
 O        -2.3944691083        0.2948907381       -2.7276272646
 C        -1.0323933186        1.3959658277       -5.3830308283
 C        -2.5336757434       -0.3121331999       -6.4879382497
 C        -5.1774898744        0.3533605290       -2.9707524753
 C        -6.6018990660       -0.0536624391       -3.3977462671
 C        -7.8310391982        0.3452497045       -2.4938867403
 C        -7.8178103520        1.9684354442       -2.4608365674
 C        -7.6459930262        2.6041877112       -3.8180626901
 C        -9.0641047673       -0.1737056792       -3.2382687904
 C        -7.6605725743       -0.2536503960       -1.0464218301
 O        -6.7157742112       -0.7573773243       -4.4110568701
 O        -7.9213165962        2.5867239300       -1.4397663224
 C        -7.2776141257        4.0751542035       -3.8773300353
 C        -5.9512417876        4.3538390684       -4.4241907022
 C        -5.7558880702        5.7661259207       -5.1297746070
 C        -6.7503817950        5.6487085919       -6.4563477972
 C        -6.2425781515        5.9893290501       -7.9116943036
 O        -5.0679697193        3.4654917619       -4.5537213846
 O        -7.9405438650        5.5682898957       -6.1911661936
 C        -6.2015745789        6.9597868292       -4.2380912066
 C        -4.2968412850        5.9012372471       -5.4363004644
 H         6.2678224574       -4.2166884963        8.5429560335
 H         6.9924937068       -5.7904389323        8.8564511490
 H         7.5231079790       -4.9749652881        7.4977584576
 H         3.3523278389       -4.4086623535        5.8997697752
 H         1.8939525417       -5.0045420120        6.4558912151
 H         3.2988117665       -7.1036040712        6.5639055905
 H         2.0869728573       -6.8714909660        7.8960089930
 H         3.4391172572       -8.0069876706        8.0544913634
 H         4.8694592627       -5.3960915339       10.1481559891
 H         3.4142145773       -6.0076166251       10.2795190127
 H         4.7397130799       -7.0720488224        9.8539753806
 H         1.1871342650       -2.8548842689        5.9293413964
 H         1.9658815527       -2.2749090541        7.2651615146
 H         2.0665252831        0.1800144590        2.8121771474
 H         1.6829613522       -1.5776682676        3.1344052737
 H         2.6506702324        1.3117616351        6.9476043069
 H         3.5297924603       -0.0019023802        7.6250377565
 H         1.8118651781       -0.2676230065        7.3745798795
 H         5.0541948451        0.0832177892        5.0542397094
 H         3.9518594379        0.1943871842        3.6968801310
 H         3.9281042912        1.3460769692        4.8886502899
 H        -0.6996946722        0.1199101173        3.6228776402
 H        -0.4834664075       -1.3556658368        2.7839752919
 H         1.3987297327        4.4162262724       -0.3461054005
 H         1.8491035326        4.0041940252        1.2637136747
 H        -1.7516110893        2.0909330046       -0.0923416587
 H        -1.5289146089        3.5043054295        0.8827058946
 H        -2.1972529977        2.2392597467        1.6863581220
 H        -0.3351460447        2.4980288747        3.5599660604
 H         1.2704741009        2.4614819664        3.0545856198
 H         0.3068045430        3.7401143616        2.4469622798
 H         3.0885520876        2.7764306465       -1.3114976741
 H         3.8660870882        4.1207105878       -0.3346403638
 H         4.9080332561       -1.2469581374        0.3917145516
 H         3.4712161856       -0.4212366782        0.4798413970
 H         7.1684628887        3.1137124366       -0.1909117947
 H         5.7121546647        3.8966369242       -0.5540944333
 H         6.3245272805        2.6419525906       -1.7221351569
 H         6.0805012576        2.4335775457        2.0834867498
 H         5.5601956955        0.7555399835        2.0373317336
 H         7.1166885748        1.2873645453        1.1989218441
 H         4.2842850987       -2.4477063130       -1.7239013010
 H         3.5671975477       -0.8763527634       -2.2445338354
 H         1.6075889746       -2.7829811387       -4.7202274474
 H         0.4848640288       -4.0588757879       -4.7160511133
 H         2.8487402590       -3.8917493811       -3.5470460933
 H         2.0968466375       -5.2637335843       -2.6683752782
 H         3.5844714796       -4.4573197273       -2.0034500661
 H         0.2131442543       -4.7487736554       -1.0960108510
 H         1.7137393050       -4.6782356941       -0.1133858418
 H         0.6037764081       -3.3774594598        0.1310865191
 H        -0.1943195967       -2.3924951367       -6.1837904845
 H        -1.5272538166       -2.7135725295       -5.1294228179
 H        -4.4874039452        0.9981808576       -4.8050839607
 H        -4.6406805693       -0.6163181184       -4.6837376300
 H        -0.8370699936        1.5228687629       -6.4221085689
 H        -0.1187062372        1.4098858034       -4.8009241140
 H        -1.6110417537        2.2098571061       -5.0517725666
 H        -2.9307199311        0.4886620638       -6.9991347361
 H        -1.7961105712       -0.7521467406       -7.1506920264
 H        -3.3014614612       -1.1258244101       -6.4180060733
 H        -5.1178995254        1.3599155534       -2.6339970710
 H        -4.9531106626       -0.2684616129       -2.0156639166
 H        -6.9378261961        2.0803516844       -4.4211060072
 H        -8.6477299627        2.5574372884       -4.2390664428
 H        -9.0179548685       -1.1470793062       -3.6052111011
 H        -9.4426287217        0.4950226766       -4.0168749379
 H        -9.9226506762       -0.2723353820       -2.4933438039
 H        -6.7267378234        0.0806768278       -0.8001319692
 H        -8.3728408940        0.1633015147       -0.3132634936
 H        -7.6480227497       -1.3491227017       -0.9863839271
 H        -7.9240671626        4.4551594729       -4.6461298100
 H        -7.3323698306        4.6287739051       -2.9212207433
 H        -5.3690758460        5.4247900157       -8.1825951726
 H        -6.9370730254        5.8628419674       -8.7649356284
 H        -5.8999233575        7.0106967946       -7.9853022913
 H        -5.2527779242        7.2783393491       -3.7690645351
 H        -6.7921192882        6.6759707756       -3.3943232561
 H        -6.7571225589        7.7287837395       -4.7884024318
 H        -4.1588222759        6.3960102303       -6.3892833760
 H        -3.7094899988        6.2459439610       -4.6563975301
 H        -3.8245652083        4.9041717679       -5.5480170671
 Na       -0.3814875236       -0.3501301510       -1.6272924662
