155

 C        -0.1460729414        2.6016062588       -9.6523070457
 C        -1.0614827419        3.2139551693       -8.4937103988
 C        -0.5304096960        3.1988400702       -6.9331782843
 C         1.0829462587        2.6893852771       -6.8446492447
 C         1.6380884361        1.8785702411       -5.7051488007
 C        -0.6581244605        4.6579046478       -6.2831264028
 C        -1.4609380821        2.2497053540       -6.2696803033
 O        -1.9649751063        4.0090019640       -8.8366764016
 O         1.7809524147        3.0244903306       -7.7927129639
 C         2.0419320566        2.8115692637       -4.4662272724
 C         1.5228817093        2.2860323101       -3.1099929514
 C         2.6614312895        1.8866222769       -2.0514418837
 C         1.9807374667        0.9914175254       -1.0553982230
 C         1.2398249728       -0.1976436167       -1.7385898520
 O         0.3970844579        2.1859517761       -2.8932383727
 O         1.7106217715        1.2814444121        0.0908836491
 C         3.9688524059        1.2340021533       -2.5887862999
 C         2.9002096105        3.2619655438       -1.3713592537
 C         1.6951872813       -1.5439810788       -1.1453166939
 C         1.6691278880       -1.5858845895        0.2924584610
 C         2.8924304533       -2.2945815198        1.1605141744
 C         2.7890536270       -1.9941713276        2.7311763245
 C         3.3556752271       -2.9838347953        3.7251907734
 C         2.7961099316       -3.8966310999        0.9567379424
 C         4.1910762161       -1.6718935984        0.7213295790
 O         0.7295314494       -1.1300545851        0.9303322774
 O         2.3885735674       -0.9478759498        3.1528717510
 C         3.1249364684       -2.6300938466        5.1816172784
 C         4.1753341026       -1.7967757706        5.9862689600
 C         3.7512707713       -1.2730053777        7.3953559962
 C         2.4359869638       -0.2257075416        7.3170053850
 C         2.8586228804        1.3029345936        7.2218682296
 O         5.3070546874       -1.7363544622        5.5805461308
 O         1.2489501559       -0.5209860377        7.2836329839
 C         3.3759395458       -2.4856124766        8.2808750603
 C         5.0021469902       -0.6212008246        8.0083594222
 C         1.6814548216        2.2057995597        6.9925498820
 C         1.0824119247        2.0974877448        5.5927097900
 C         0.3586406498        3.4139845096        5.1369853455
 C        -0.4343300774        3.2127600822        3.8335442602
 C        -1.8166346485        3.9041542515        3.7016723310
 C        -0.3388575982        4.1438767741        6.3944814852
 C         1.5596709816        4.4156154286        4.7250076836
 O         1.3732403153        1.2564855275        4.7962340790
 O         0.0581242445        2.8706992994        2.8142970384
 C        -2.6094091761        3.5796970698        2.4888254217
 C        -2.2242373015        4.3954159932        1.2474340656
 C        -2.3641677758        3.9863918554       -0.3140071107
 C        -3.0306817672        2.4959771962       -0.3627142476
 C        -2.0278153027        1.2116581665       -0.5766989337
 O        -1.4903350667        5.2826264197        1.4975802672
 O        -4.2311762515        2.3425517126       -0.1366247054
 C        -3.4406565451        4.9881600895       -0.8137794671
 C        -1.0549695778        4.1706520048       -1.0880511263
 C        -2.6370416066       -0.1186505861       -0.0144442251
 C        -3.5241978288       -0.6323334831       -1.2032929747
 C        -4.8712367439       -1.4158987796       -0.9321878949
 C        -4.7269804912       -2.9786984561       -1.3944747225
 C        -4.3799255191       -3.2578663120       -2.9567565557
 C        -5.1476400251       -1.2581697796        0.6022853946
 C        -6.1117596262       -0.8400105628       -1.7825729496
 O        -3.1404804128       -0.5176060567       -2.3885446654
 O        -4.8150957106       -3.8505801402       -0.6211751248
 C        -3.6752930881       -4.6207128016       -2.9794302610
 C        -4.2055313458       -5.5768245838       -4.0525271954
 C        -4.2713087329       -7.1125839617       -3.8981544982
 C        -2.7314823618       -7.6150963624       -3.7911730718
 C        -2.7234742838       -9.1229214388       -3.6494958650
 O        -4.4131131849       -5.1029766995       -5.1510681784
 O        -1.8196948194       -6.8850000981       -3.7067032880
 C        -4.9532041730       -7.6373642681       -2.6045002161
 C        -5.0305803827       -7.7699835516       -5.0597800115
 H        -0.9026922744        2.3206464130      -10.3725582802
 H         0.2928893608        3.4320549760       -9.9900318669
 H         0.4565738739        1.7524502412       -9.3351077226
 H         0.9602493310        1.0772139371       -5.3073461165
 H         2.4450063452        1.3227424041       -6.0517599409
 H         0.2839891948        4.8430184635       -5.8988405768
 H        -1.4872487673        4.7393907912       -5.6038352521
 H        -0.8855450123        5.4693099739       -7.0368813430
 H        -1.3019442109        2.0370898078       -5.2423048990
 H        -2.5171208825        2.4420978597       -6.5240738473
 H        -1.3839414897        1.2486467128       -6.7886577824
 H         3.1688072927        3.0244647407       -4.5827082556
 H         1.4355693339        3.7460003138       -4.5973938715
 H         0.2169188129       -0.0279588965       -1.6568163784
 H         1.4184269745       -0.1934600667       -2.8582521074
 H         4.5849398001        0.7169134524       -1.8721197036
 H         4.6395898148        1.8847975196       -3.1803480912
 H         3.7599295607        0.5658960289       -3.3681156664
 H         3.5651756556        3.0737050889       -0.5108113537
 H         3.5268164837        3.8269357635       -2.0342987250
 H         1.9273675106        3.6364568916       -1.0125352069
 H         2.7031663117       -1.6148210414       -1.5448810327
 H         1.0051138990       -2.3443307751       -1.4759704141
 H         2.9794994364       -3.9698584755        3.4688301171
 H         4.4422611582       -2.8314126267        3.4862191361
 H         3.7800991594       -4.3672492802        1.1383939530
 H         2.4749256634       -4.1665819669       -0.1532664675
 H         1.9842227310       -4.3547181814        1.7080650908
 H         4.7204603473       -2.1621645786       -0.1004712196
 H         4.1798926385       -0.6606113654        0.2763245988
 H         4.9598372415       -1.7452372085        1.5280164404
 H         2.1861608550       -2.0612875445        5.3931181233
 H         3.0864016271       -3.5763488862        5.5861912138
 H         3.0989092392        1.6685928217        8.2970205686
 H         3.6328392749        1.5979125401        6.5793341472
 H         4.2228002577       -3.1652508023        8.4206351093
 H         2.6785868764       -3.1910439359        7.8914392326
 H         2.9664558673       -2.1944947367        9.2803385037
 H         4.8107182047       -0.1444015464        8.9770326930
 H         5.7272803606       -1.3936549072        8.1658956280
 H         5.2412976473        0.2014982717        7.3786977367
 H         2.1166760836        3.2104957952        7.1687260374
 H         1.0294328157        2.0146015061        7.8735928574
 H        -2.3939099155        3.7195982365        4.5102872435
 H        -1.5656828271        5.0336747729        3.5312206439
 H        -1.0069094136        3.6221166853        6.9860934472
 H        -0.9409305216        4.9635754415        5.9861751478
 H         0.4312484903        4.4063467270        7.0773394557
 H         2.4223095980        3.8538977751        4.2983003631
 H         1.0738993430        4.9778057713        3.8609863909
 H         1.8376276623        5.1230061005        5.6729239553
 H        -2.6517648412        2.4677708912        2.3679408188
 H        -3.5820655937        3.7617303590        2.7749482570
 H        -1.7283477663        0.8954363062       -1.5702158395
 H        -1.1724924060        1.3839139775       -0.0324692214
 H        -4.4413427673        4.6488307152       -0.4905537174
 H        -3.4378338811        5.0909981661       -1.8368269682
 H        -3.1372253818        5.9313497243       -0.4938184066
 H        -0.4376790760        3.2388187164       -0.7838546858
 H        -1.0705018053        4.3550956473       -2.1326778454
 H        -0.4457668030        4.9467450155       -0.7405995953
 H        -3.1800325488        0.1196986541        0.8726292336
 H        -1.9320269835       -0.8807183305        0.2582421987
 H        -5.3142103549       -3.4326891923       -3.5449346933
 H        -3.8532169578       -2.3512881188       -3.3714994809
 H        -4.5463716684       -1.9331032674        1.2555407442
 H        -6.2101662285       -1.4169101163        0.8880189365
 H        -5.1239131407       -0.1655866391        0.7419091490
 H        -5.6310229398       -0.3307578076       -2.5597230318
 H        -6.7957410247       -1.5813453211       -2.1203509939
 H        -6.7852203108       -0.1297492995       -1.3073014224
 H        -2.6507692234       -4.5121840939       -3.3377606298
 H        -3.7398912187       -5.0868357763       -2.0156316943
 H        -2.4815173806       -9.4848302571       -2.6445772236
 H        -3.6226563909       -9.7635475045       -3.9559919910
 H        -1.8921244778       -9.5796866311       -4.3498431478
 H        -4.2747931803       -7.5874606762       -1.7574119839
 H        -5.1561559549       -8.7144351843       -2.7175128714
 H        -5.8991969593       -7.2087987641       -2.6388272553
 H        -4.6665932220       -7.5155786399       -6.1154272510
 H        -5.0833811963       -8.8273652785       -4.8992503129
 H        -6.0993497435       -7.3898766454       -4.9907524040
 Na        1.0629672072        0.7283972005        2.3296225271
