155

 C         7.2542551777       -5.7949603253        7.9188536665
 C         5.8348547948       -6.2070021338        7.4998630675
 C         4.5796020664       -5.8541820166        8.3586033703
 C         4.1177563492       -4.4747705388        7.9981022892
 C         3.2318854921       -4.1559181555        6.7225315293
 C         3.5985821778       -6.9512442702        8.0226560630
 C         5.0152431292       -6.0567399417        9.9370071081
 O         5.6641233057       -6.8960073571        6.5031999744
 O         4.3139919403       -3.5863189197        8.8004935329
 C         2.7037551290       -2.6251932897        6.8368206699
 C         2.8684969758       -1.7834947694        5.6218940195
 C         2.6216786946       -0.2442913676        5.6749842931
 C         1.4671944476       -0.1083816086        4.7637960659
 C         1.5534599242       -0.2930188916        3.1916978112
 O         3.3192606858       -2.2634063990        4.5636495643
 O         0.3914645330        0.2489517597        5.1820737372
 C         2.3095822755        0.2914700656        7.1274336455
 C         3.7938642011        0.5459391066        5.1690952739
 C         0.1196834065       -0.3196960857        2.5252749668
 C        -0.2482245474        0.5149099719        1.3338311845
 C        -0.0890041825        2.0170715710        1.2369157378
 C         1.0871885729        2.2823520297        0.0722445618
 C         2.0187414515        3.4989960866        0.2954972231
 C        -1.4541331249        2.5626156432        0.6299210705
 C         0.3410026063        2.6577475369        2.5298622937
 O        -0.7099035969       -0.0942931496        0.4387582692
 O         1.1068886947        1.7002099603       -0.9981310445
 C         3.3747460707        3.3150417762       -0.4343725785
 C         3.9716857980        2.0448132060        0.2549392691
 C         5.3543473629        1.3978917211       -0.2594335539
 C         4.8339790330        0.2970730149       -1.2431787859
 C         4.2763876846       -0.9314978719       -0.5317520297
 O         3.3358678336        1.5119218847        1.1650019288
 O         4.8870697940        0.5182010250       -2.4370785181
 C         6.1509595719        2.4963774512       -0.9513822038
 C         6.0771230226        1.1010383261        1.0532680083
 C         3.8635350977       -2.1169580025       -1.3787770651
 C         2.3510948624       -2.3650761283       -1.3440285789
 C         1.5809212222       -3.6623365104       -1.8504588375
 C         0.4610911986       -3.1161340443       -2.6902535724
 C         0.5085404643       -2.9805137188       -4.2247519260
 C         2.5947044589       -4.5506726527       -2.5692778116
 C         1.0819297795       -4.3880504066       -0.4592293486
 O         1.7230552964       -1.4036612336       -0.9526985027
 O        -0.4389815470       -2.4939014965       -2.0879857873
 C        -0.8172437216       -2.5592140091       -4.7879764159
 C        -0.8892743345       -0.9381191522       -4.7425629064
 C        -2.0814034692       -0.1287190513       -5.2582543959
 C        -3.1211560600        0.1642025192       -3.9971268004
 C        -4.6092021280        0.3450694737       -4.3478908229
 O         0.1187650860       -0.4123015077       -4.2711435381
 O        -2.6311690051        0.1692878757       -2.9004489721
 C        -1.6188176353        1.2636463396       -5.7876904324
 C        -2.9573297598       -0.9753727782       -6.2955467750
 C        -5.3803077640        0.8656694750       -3.1167449944
 C        -6.9049964800        0.4023060191       -3.2492420839
 C        -7.8970880570        0.8473930204       -2.1702001780
 C        -7.8259477012        2.4971894064       -1.9487624286
 C        -7.7979513997        3.3787249755       -3.2121176130
 C        -9.3359689504        0.5089885228       -2.4271146605
 C        -7.3313622636        0.1450919245       -0.8286803897
 O        -7.2008347968       -0.1827864725       -4.3049484505
 O        -7.8122226481        3.0085649277       -0.8632809825
 C        -7.0237781540        4.6587389653       -3.0230243442
 C        -5.9432693837        4.7774725713       -4.1673750272
 C        -5.9475397586        6.0217564308       -5.1857704313
 C        -6.6222721438        5.4454663775       -6.4832587961
 C        -5.9801680923        5.3192307424       -7.8487610339
 O        -5.1847186678        3.8041975336       -4.2870831870
 O        -7.7005579949        4.8638244898       -6.4410532894
 C        -6.8024725014        7.2758698841       -4.8356869027
 C        -4.4524895324        6.4311698011       -5.4674455819
 H         7.3551976222       -4.8398291651        8.4402350995
 H         7.6499824577       -6.5853331662        8.4821204604
 H         7.9079250200       -5.7519095293        7.0870453210
 H         3.8365342019       -4.3466455806        5.8099471175
 H         2.4566609385       -4.9392015410        6.8131384272
 H         3.2588688184       -7.0712618461        7.0467749514
 H         2.6059236722       -6.8322482857        8.5859210052
 H         4.0924883858       -7.8752602440        8.2625335819
 H         5.8497674581       -5.4644864769       10.1726642507
 H         4.1617878702       -5.9377047601       10.6256716797
 H         5.4323552166       -7.0219601702       10.2881440327
 H         1.7331020516       -2.6149047543        7.2967317975
 H         3.3223033658       -2.3193721828        7.6777582345
 H         2.2044035529        0.5130630103        2.8390180910
 H         2.0600638493       -1.2805839107        2.9408266811
 H         2.0663235031        1.3169665523        6.9897772207
 H         3.1451930860        0.1954048867        7.7789091893
 H         1.3174149476        0.0908424020        7.5720914678
 H         4.6457365135        0.2730596060        5.7502925053
 H         4.1701247522        0.2324934673        4.1444034885
 H         3.7760072856        1.6464077164        5.1627293101
 H        -0.5507336575       -0.0247968205        3.3976034116
 H        -0.1329367275       -1.2880625212        2.2409934102
 H         1.5535659701        4.4150014943       -0.0676873138
 H         2.3324936566        3.6342265945        1.3023659470
 H        -1.7679583182        2.0399922973       -0.3012670703
 H        -1.3280447569        3.6376952717        0.4743629380
 H        -2.3294705595        2.3356944098        1.2426521421
 H        -0.2029887666        2.2315345217        3.3987015245
 H         1.3930049135        2.5057585918        2.7478316555
 H         0.1249308654        3.6978548583        2.6708339520
 H         3.2092462007        3.0561026315       -1.4983618014
 H         4.0108890507        4.1537770078       -0.2722963019
 H         5.1154365537       -1.1426912760        0.1803698573
 H         3.5361822433       -0.6537350556        0.2473615513
 H         6.6401956174        2.1393314386       -1.8319402821
 H         6.9018077145        2.8961486031       -0.2758565713
 H         5.6583544532        3.3531924276       -1.3270048575
 H         6.2218449180        1.9952163239        1.6118312552
 H         5.3365642455        0.4605313038        1.5723210891
 H         7.0719873723        0.5620161753        0.9844451378
 H         4.3445930397       -2.9932683870       -1.0365333416
 H         4.0870518265       -1.9207885487       -2.4441145751
 H         1.2017124971       -2.1529545663       -4.3417460624
 H         1.0349515128       -3.8188231841       -4.6829085353
 H         3.1272018395       -4.0334789902       -3.3137282708
 H         1.9325281082       -5.3265632744       -3.0625665475
 H         3.2986804666       -5.0654969421       -1.9403398996
 H         0.8455594099       -5.3790709396       -0.7863648920
 H         1.8931162054       -4.3288363210        0.3103504059
 H         0.1602064725       -3.8879891336       -0.2012837348
 H        -1.0676203796       -2.7283720729       -5.8480274577
 H        -1.6869314103       -2.7813825902       -4.1087925793
 H        -4.7542077984        1.0751991861       -5.1443156666
 H        -4.9688017508       -0.6342310811       -4.7936360549
 H        -0.8559013988        1.1039990574       -6.5127594149
 H        -1.1473340960        1.6951496441       -4.8719302658
 H        -2.4179755384        1.8475003398       -6.1954855667
 H        -3.6511782746       -0.4626705677       -6.8359683148
 H        -2.3742755558       -1.6584184524       -7.0550288815
 H        -3.4792034270       -1.8188033227       -5.8257246761
 H        -5.2900279591        1.9995258620       -3.0912860203
 H        -4.7617380718        0.5416495860       -2.3283396791
 H        -7.4139475170        2.7627958914       -4.0550258581
 H        -8.8339524606        3.6015289783       -3.5837802248
 H        -9.4276218046       -0.5194299396       -2.5807515333
 H        -9.7680243892        0.9240323040       -3.3523660044
 H       -10.0787553253        0.9265918564       -1.7506759888
 H        -6.4239491449        0.7245075950       -0.4512785385
 H        -8.1238827536        0.0495262695       -0.0482195458
 H        -7.0371609254       -0.8736754749       -0.9769123633
 H        -7.7059504774        5.5114314727       -2.9761444191
 H        -6.5587002048        4.6621189028       -2.0531834679
 H        -5.1730408735        4.5838967760       -7.9714881649
 H        -6.7224380803        4.9098653147       -8.5620434761
 H        -5.5540423934        6.2599170900       -8.2451649864
 H        -7.7549106079        7.1869517659       -5.2774417386
 H        -6.2198282669        8.2108905063       -5.1887735975
 H        -6.9786542961        7.4092526443       -3.7693827979
 H        -4.3606274190        7.3289023071       -6.0138363089
 H        -4.0795350237        6.8218946622       -4.4832070462
 H        -3.8211489048        5.6943554185       -5.8710040053
 Na       -0.5029745325       -0.1885900122       -1.8695478826
