155

 C        -4.1704176581        2.4470818771       -9.4906556706
 C        -4.4231494255        2.3917080301       -8.0048641731
 C        -3.9357282907        3.6360041136       -7.1109029924
 C        -2.3595345296        3.4101696244       -6.9923918707
 C        -1.8467697228        2.6146947609       -5.7561806858
 C        -4.3649600117        5.0566124368       -7.9427630321
 C        -4.7510942344        3.4011665887       -5.8321160526
 O        -4.9907434382        1.3941486231       -7.5875040492
 O        -1.6776685448        3.7640381003       -7.8811337001
 C        -0.4597267083        1.9189640853       -5.9823851000
 C         0.2927837154        1.7140540809       -4.7105465674
 C         1.6134309116        0.6661359914       -4.6880882744
 C         1.8147664385       -0.1657975731       -3.3108650000
 C         0.5027196176       -0.6999902500       -2.7789316901
 O         0.1358082640        2.4128506182       -3.6488109389
 O         2.9335995867       -0.2837229042       -2.8126099024
 C         1.4288888523       -0.4033769307       -5.8156847188
 C         2.8928921004        1.4911704603       -4.8479052652
 C         0.4045131856       -2.0598580923       -2.1035092580
 C         0.8282010644       -1.9691179641       -0.5486294656
 C         1.5073316565       -3.1932723086        0.0386122830
 C         1.8668647658       -2.8316023915        1.5380144025
 C         1.3416334592       -3.4916799963        2.7611253509
 C         0.5199402294       -4.4839599572       -0.1283259847
 C         2.8561972951       -3.3768745084       -0.7382332223
 O         0.4805871131       -0.9744797246        0.0303845846
 O         2.5995225145       -1.8108074564        1.6333592112
 C         2.2480698610       -3.2352947684        3.9711250105
 C         3.6955312229       -3.4980464900        3.6855357386
 C         4.9614605027       -2.9442964880        4.6159305594
 C         5.5021298658       -1.4888075284        4.4191927831
 C         5.7808227675       -1.0588381737        2.8784630008
 O         3.9741754944       -4.0473508575        2.6261177214
 O         5.5949622169       -0.6965506508        5.3634648642
 C         4.3962344064       -3.0704265367        5.9831819223
 C         6.1419505125       -4.1002921652        4.5958891920
 C         6.2614956441        0.3638337737        2.7293330096
 C         5.0805916543        1.1866017396        2.2568638874
 C         5.2926420316        2.1520440178        1.0958405536
 C         3.6721269450        2.7381265632        1.0374615162
 C         3.0475324000        3.2735878760        2.4108341660
 C         6.2448442945        3.2979510486        1.4797409975
 C         5.4753085614        1.3638669127       -0.2936132907
 O         3.9103276667        0.8680761470        2.5419635102
 O         3.0414211743        2.4655260709        0.0193290328
 C         1.5686507290        3.1620368948        2.4414996767
 C         0.7507498106        4.1534895539        1.4716063741
 C        -0.8354395650        4.3316998147        1.7173508970
 C        -1.3009238069        2.8984462645        2.2610487789
 C        -1.4476349609        1.7774220301        1.1762713291
 O         1.3471416939        4.8997620337        0.7432579272
 O        -1.5589705766        2.6169020270        3.4720100067
 C        -0.8219196832        5.2923410874        2.8418820593
 C        -1.6523575865        4.6733957949        0.4978879752
 C        -2.3460267246        0.6128978219        1.8949631657
 C        -3.9079430647        0.9276483398        1.6084716030
 C        -4.9864237070        0.4158741332        2.6465215502
 C        -5.8147959514       -0.7532369994        1.7927403030
 C        -6.9864231058       -1.5695021341        2.2907183893
 C        -4.4943523091       -0.1218454213        4.0086359650
 C        -5.9100815678        1.7458546875        2.8889616999
 O        -4.1854432315        1.1555344740        0.4800651894
 O        -5.5155591880       -0.9325027535        0.6807884002
 C        -7.5596363051       -2.8494785095        1.4963613177
 C        -6.6155026994       -3.8934902670        0.8648464789
 C        -5.5548392011       -4.7919239587        1.5121273980
 C        -4.2724884141       -4.6030133960        0.4847730013
 C        -4.3018654742       -5.3865150692       -0.7902246740
 O        -6.8908342386       -4.2156167482       -0.2573540026
 O        -3.4844103620       -3.7474053081        0.7528918371
 C        -5.0990867052       -4.4511763349        3.0021294118
 C        -6.1738107331       -6.2575219480        1.7248543385
 H        -3.6482709126        1.6119326695       -9.7797788884
 H        -5.1820048374        2.4046282017      -10.0350784155
 H        -3.5183766255        3.3140115272       -9.8758676412
 H        -1.6484779550        3.3938728102       -5.0327926659
 H        -2.6448973390        1.9641309648       -5.3935209798
 H        -5.0148828356        5.6129204490       -7.2159496729
 H        -5.0432095533        4.6277523118       -8.7037557195
 H        -3.5563673865        5.6730501616       -8.4153680590
 H        -5.6372495126        3.9782230099       -5.7736628906
 H        -5.1389519722        2.3377477001       -5.6822700066
 H        -4.1852201276        3.4588438087       -4.9489233112
 H        -0.6101707109        0.9360196135       -6.3548825260
 H         0.2258395403        2.2913422746       -6.7293042141
 H         0.1807795798        0.1502118467       -2.1132150454
 H        -0.1938419143       -0.7696731508       -3.6007538820
 H         2.3562538310       -0.9602948689       -5.8366842479
 H         1.3229637521       -0.0417834330       -6.8409165963
 H         0.6902573606       -1.1602655572       -5.6072000318
 H         3.3991324548        1.4989289906       -3.9252216028
 H         3.3678683139        0.9737368575       -5.5887372077
 H         2.7871305558        2.5473418723       -5.1523733193
 H         1.1114362281       -2.6617599027       -2.5831401750
 H        -0.6644379105       -2.4023384945       -2.0152812535
 H         0.3659936187       -2.9350302160        2.9639690065
 H         1.1116071635       -4.4910118155        2.6076666138
 H         0.9491980676       -5.2562347108        0.4170281884
 H         0.4090156063       -4.6807526836       -1.1458649407
 H        -0.3884667476       -4.3649491619        0.3452154125
 H         3.3218731221       -2.4163395972       -1.0891528067
 H         3.6105655296       -3.8526582053       -0.0245858706
 H         2.8222755819       -4.0987182223       -1.6217923559
 H         2.2186294042       -2.1675706729        4.2651627204
 H         1.8997928314       -3.9725193475        4.7521021223
 H         6.5080983689       -1.7109183545        2.3671545514
 H         4.8947196439       -1.2199936326        2.2947889068
 H         4.0092490942       -4.0622704402        6.1481887617
 H         3.4864362193       -2.4051588490        6.0924028697
 H         5.1445405338       -3.0286051494        6.7592214058
 H         7.0344440916       -3.8434941734        5.2144524167
 H         5.7341631089       -4.9861286623        5.1447310011
 H         6.3159624019       -4.5113154480        3.5983931270
 H         7.1088738212        0.4892176430        2.0052617055
 H         6.6182669990        0.7707174582        3.7353560304
 H         3.2922991186        2.5866009581        3.1808340409
 H         3.4219601990        4.2601442763        2.6092236424
 H         7.0543303040        3.4519462170        0.6795691841
 H         6.8191992353        3.0158326896        2.3533311548
 H         5.7930795348        4.1987408568        1.8056085492
 H         4.8377680889        0.5440500411       -0.3811001305
 H         5.4269173744        2.0684401907       -1.0608515375
 H         6.4451049218        1.1123722837       -0.4195347739
 H         1.2636434583        2.1380864268        2.1533451062
 H         1.3803196492        3.4358269680        3.6148447204
 H        -2.1601752489        2.0609696805        0.3649033336
 H        -0.4884143622        1.6169918134        0.7046050318
 H         0.0111308440        4.9995187814        3.6055346361
 H        -1.5733469708        5.2469411097        3.5794482917
 H        -0.6653167727        6.2954661714        2.4793790855
 H        -1.4424921578        3.9616975082       -0.3140473452
 H        -2.6945226596        4.5584707408        0.7373078126
 H        -1.4031346791        5.6217263667        0.0527585924
 H        -2.0890730164        0.5045880204        2.9143430749
 H        -2.0995308919       -0.4433988593        1.6455669122
 H        -6.7331102823       -1.8423515668        3.3481961509
 H        -7.8164675108       -0.8171711881        2.2763561424
 H        -4.0381846986       -1.1319696530        3.8785340377
 H        -5.3966641676       -0.1809057550        4.6749255952
 H        -3.6722693415        0.5508727492        4.3900363611
 H        -5.2226162452        2.3585376812        3.4200023700
 H        -6.1320938541        2.3233540811        1.9814899300
 H        -6.8246291766        1.5136507521        3.4475277880
 H        -8.2681788508       -3.4689349422        2.1591394617
 H        -8.1410717856       -2.5730191557        0.5676007241
 H        -5.1397503713       -4.7930414013       -1.2678518993
 H        -3.3768699895       -5.1152159462       -1.2043158945
 H        -4.4987134205       -6.4463926740       -0.5356239965
 H        -4.5745308730       -3.5012128123        3.1902160294
 H        -4.3532430810       -5.1294121483        3.4229363288
 H        -6.0238612834       -4.5246383607        3.6887928860
 H        -6.4612258429       -6.5616952242        0.6620193404
 H        -5.4953535758       -7.0339834571        2.1846437378
 H        -6.9983910907       -6.0820039663        2.4486733337
 Na        2.1218303467        0.5633315502        0.1531876256
