155

 C        -5.2423926041        1.8812370843       -9.3715823894
 C        -4.8900569883        2.2078034201       -7.8676055182
 C        -4.0811253300        3.4196310660       -7.4232834915
 C        -2.5665619153        2.9495499976       -7.1943655064
 C        -2.4149533604        1.8143530228       -6.1263840542
 C        -4.2520047051        4.5763135817       -8.5138105402
 C        -4.7414709735        3.8593738316       -6.0301252319
 O        -5.3257985381        1.4780172346       -7.0309757975
 O        -1.6474251484        3.4631847192       -7.7764581547
 C        -0.9522238173        1.1189623597       -6.3889858694
 C        -0.1313977604        1.5216708669       -5.1664763821
 C         1.3359249713        0.9647797015       -5.0200640215
 C         1.2063291338        0.3305924661       -3.4965436286
 C         0.0351624535       -0.6256365504       -3.2341850433
 O        -0.5550322720        2.2224517136       -4.2349579696
 O         2.1059871277        0.3928709487       -2.6452631883
 C         1.7842931308       -0.0887921139       -6.0272145119
 C         2.3592141416        2.2447621480       -4.9930995038
 C         0.5172690896       -1.8958408930       -2.5221569104
 C         0.2493498910       -2.1074743167       -1.0512669763
 C         0.7654573698       -3.4920614940       -0.4097115338
 C         1.8809301027       -3.0500388233        0.7667846216
 C         2.1013914036       -4.0433988888        2.0265198781
 C        -0.4939722972       -4.1405673701        0.2616741311
 C         1.4308546612       -4.4644727428       -1.4281996757
 O        -0.1357294218       -1.2417395015       -0.2939207031
 O         2.3399190635       -1.9291223189        0.8013814056
 C         3.1243860134       -3.7196076414        3.0299326516
 C         4.4084161323       -3.3930750192        2.3499510501
 C         5.7350901012       -3.0050829014        3.2006079034
 C         6.3270529797       -1.5276234491        2.7378767295
 C         7.0525577097       -1.5935513715        1.3204710760
 O         4.4085091602       -3.3635908301        1.1527697209
 O         6.3342435703       -0.6253323539        3.4644536025
 C         5.4807522142       -3.1701061861        4.7150547556
 C         6.7621391064       -4.2014832067        2.9310280542
 C         7.0849382685       -0.3230072440        0.3245254784
 C         5.6899122859        0.3434726044        0.2620244468
 C         5.6672447336        1.8631798411        0.9465830662
 C         4.1886676067        2.3255128914        1.3321310430
 C         4.0306624712        3.6985224725        1.8724256621
 C         6.5794970247        2.0182362661        2.1914055501
 C         6.2233081760        2.6711239816       -0.2835419028
 O         4.6654360073       -0.1495912634       -0.1608835217
 O         3.2110950313        1.5885104410        1.3291419463
 C         2.6804044438        3.6739203349        2.5902299240
 C         1.3687097362        3.5578391787        1.6805283083
 C         0.1030460222        2.9992153880        2.2569635765
 C        -0.2240767599        1.3811485631        2.4718444145
 C        -1.6855613289        1.0515600750        2.5096447395
 O         1.2651651231        3.9331671618        0.5167864695
 O         0.6574701362        0.6189391870        2.4394117558
 C        -0.1745951770        3.7168516477        3.7183566528
 C        -1.0398930863        3.5773958998        1.2743896770
 C        -2.8799253098        1.5866925677        3.4469321141
 C        -4.1761300666        1.5115056914        2.6538187933
 C        -5.5030689004        1.6949822637        3.3189589590
 C        -6.0124469240        0.1460858348        3.3714032900
 C        -5.3972210857       -0.9210544885        4.2757973658
 C        -5.5160184611        2.3165836042        4.6571079670
 C        -6.4112224876        2.6248845693        2.4565689433
 O        -4.0417532190        1.2471924960        1.4633484991
 O        -6.7513920956       -0.1717285645        2.4494910388
 C        -6.2758575830       -2.2868788781        4.3650391186
 C        -7.1783532851       -2.6734340678        3.2315428295
 C        -6.6471913852       -4.0426414698        2.2166501879
 C        -5.0873386819       -3.8375443133        2.0077722631
 C        -4.4415788352       -3.9330113493        0.7273726742
 O        -8.1971015238       -2.0889052477        3.1759618900
 O        -4.3266118094       -3.6090547754        3.0334332015
 C        -6.9461791799       -5.1623839941        3.2170525169
 C        -7.4911035448       -3.9232139315        0.9448710248
 H        -5.9366464372        2.5956862150       -9.4843831672
 H        -4.3056787347        2.0452472499       -9.8393135996
 H        -5.5493873014        0.7644777045       -9.4618224432
 H        -2.2058993196        2.1330171709       -5.1230902401
 H        -3.3521655718        1.2731154095       -6.0580570235
 H        -3.3887012034        5.2214668348       -8.4843985777
 H        -5.2433634304        4.9433302368       -8.6995967525
 H        -4.1086998705        4.1368866411       -9.4894489274
 H        -5.7661013727        3.2542760129       -6.1066885744
 H        -4.2745787838        3.6359693243       -5.0834837867
 H        -4.9545730720        4.9537805557       -5.9683753162
 H        -1.0499485832        0.0681896898       -6.5447478607
 H        -0.6097769379        1.7348264454       -7.2650994554
 H        -0.7277598837       -0.0624033657       -2.5971725601
 H        -0.4937751954       -0.8812480063       -4.1313151803
 H         2.7383840469       -0.5751985344       -5.9148341606
 H         1.7513835666        0.2569907282       -7.0160352582
 H         1.1507848566       -0.9696813485       -6.0153598573
 H         3.3652051388        1.9445336985       -4.9974932154
 H         2.2766686300        2.8823066129       -5.8793647037
 H         2.1592381812        2.6788701233       -4.0279983066
 H         1.6430994903       -1.9616690132       -2.5092565160
 H         0.2807549217       -2.7676605949       -3.0011526934
 H         1.1187987497       -4.2762311234        2.5113541634
 H         2.4255250299       -5.0186069166        1.6264922727
 H        -0.1378453084       -5.1800513617        0.5933667550
 H        -1.3876940933       -4.1717697829       -0.4857974690
 H        -0.7029991611       -3.6399274818        1.2690154481
 H         2.4221140872       -4.1259035310       -1.8165647547
 H         1.8428675263       -5.3369598749       -0.9201564541
 H         0.7680017973       -4.7712612207       -2.2475655421
 H         2.9381657008       -2.7873891788        3.6053133194
 H         3.2306307791       -4.4692902051        3.7322955109
 H         8.0699662448       -1.8760589661        1.5552862795
 H         6.6202272958       -2.4644620515        0.6984547725
 H         4.9384505775       -4.1616011288        4.9449126287
 H         4.8339469731       -2.4171620287        5.1324410479
 H         6.4105034193       -3.2774578087        5.3038733698
 H         7.7820631705       -3.9601753603        3.2867094473
 H         6.5218903096       -5.0621932955        3.5546984682
 H         6.7666224111       -4.5963585991        1.8802429972
 H         7.3102682329       -0.5814368984       -0.7217305973
 H         7.7723775205        0.4874497499        0.5247813675
 H         4.8207417100        3.9535916072        2.5678799665
 H         3.8464080196        4.4890535888        1.1813778853
 H         6.0775196611        2.4694057653        2.9985311024
 H         7.3976238499        2.7777157071        1.9687176618
 H         7.1504524646        1.1969018253        2.4627852709
 H         6.9046403048        3.4612696976        0.0991110769
 H         7.0244966305        2.0945133109       -0.7467277599
 H         5.3821899687        2.9245387222       -1.0544779212
 H         2.6802063802        2.8176256634        3.2513822635
 H         2.6162459939        4.5109951841        3.1411557220
 H        -2.1528016963        1.3484727851        1.5546397778
 H        -1.8697925069       -0.0165461249        2.5997617196
 H         0.3257101588        3.1335644085        4.4611393827
 H        -1.2479649101        3.5494145594        3.8568057640
 H         0.2313194031        4.7109802303        3.6997335887
 H        -1.2288147541        3.0325655865        0.3852140487
 H        -2.0397507452        3.5352690108        1.7751124240
 H        -0.8307136574        4.5822522035        0.9174903914
 H        -2.8379156757        2.6826286634        3.6419806790
 H        -2.9082399291        1.0921058408        4.3321231357
 H        -4.4331461533       -1.2592219936        3.9698527728
 H        -5.2878357610       -0.4467245053        5.2560288739
 H        -4.9379771693        1.7680961352        5.4317912164
 H        -6.5616023932        2.4253608339        4.9661413099
 H        -5.1330793589        3.3565913267        4.5923100180
 H        -5.9757718196        3.6093768746        2.2961872207
 H        -6.8243239231        2.2287563855        1.5442497548
 H        -7.2909600216        2.7165303259        3.1085833503
 H        -5.4923144913       -3.0190312401        4.5865356000
 H        -6.8287862514       -2.1137614948        5.3097645303
 H        -4.5581848646       -2.9754708282        0.0874599484
 H        -3.4055588565       -4.1579858190        0.8517721470
 H        -4.6616270487       -4.6955657461       -0.0624877274
 H        -6.2042960174       -5.0798320005        3.9991046139
 H        -6.6472276929       -6.1509861160        2.8589684115
 H        -8.0204972523       -5.1395814034        3.3999107825
 H        -7.3048286898       -2.9326628959        0.5934603876
 H        -7.1102240651       -4.7706044182        0.2504846712
 H        -8.5904776893       -4.2356523464        1.0629258073
 Na        2.2742315716        0.1013501114       -0.1770523248
