155

 C        -5.1930224645        1.4858831223       -9.0898549506
 C        -5.0883411868        2.4204569283       -7.8397658680
 C        -3.7818801441        3.3528391772       -7.8384945124
 C        -2.5866806790        2.4095073080       -7.5835777828
 C        -2.5342205622        1.6111555218       -6.2068794774
 C        -3.7659012489        4.1575588380       -9.1154155767
 C        -3.9467344928        4.2885678262       -6.5578599331
 O        -5.8456107618        2.2947379639       -6.9004086811
 O        -2.0827555522        2.0067148660       -8.5834315338
 C        -1.3968479945        2.2794220307       -5.3046687931
 C        -0.7532543681        1.2367999894       -4.3033475627
 C         0.6495902948        1.4933682896       -3.7314484453
 C         0.8831776223        0.3418852724       -2.6649211410
 C         0.6800438200       -1.1696765956       -3.0980276689
 O        -1.2210052300        0.0647500920       -4.2671144272
 O         1.2011161046        0.7138044485       -1.5416256444
 C         1.7150805745        1.2210012522       -4.8651481662
 C         0.7258683943        2.9470003746       -3.2947889661
 C         1.1808232710       -2.2140132738       -2.0843141420
 C         0.2162970072       -2.3866612279       -0.8897853525
 C         0.7514676365       -3.4998346127        0.1144408741
 C         2.1642358509       -3.1540312255        0.7508734734
 C         2.8262791172       -4.3374046161        1.5615514476
 C        -0.3055676782       -3.6142822414        1.2314847416
 C         0.9578424528       -4.8748391656       -0.6091908723
 O        -0.6691374426       -1.6340094545       -0.5938170317
 O         2.5030531672       -2.0207826638        1.1078080696
 C         4.2872186416       -4.1798142434        1.9209861470
 C         5.3160854394       -4.6539845418        0.9012305856
 C         6.7526563655       -4.1249545000        0.9567478407
 C         6.5228865887       -2.5123932888        0.3891004443
 C         6.7541072168       -2.2036912591       -1.0163913912
 O         5.0230251308       -5.2327453209       -0.1481205976
 O         6.0712349448       -1.6959849935        1.1520308807
 C         7.3060595509       -4.0567394179        2.4951484110
 C         7.7227211647       -4.7727651362        0.0125384320
 C         6.6174843405       -0.6375070287       -1.2611761849
 C         5.1707065844       -0.1330686657       -0.7639719728
 C         5.2286863316        1.3009212906        0.0495708336
 C         3.9002248243        1.7615740763        0.9136663690
 C         3.9130591276        3.1476058386        1.6109692633
 C         6.6263415516        1.5529558062        0.9978260795
 C         5.3173687827        2.4038086927       -1.0650724743
 O         4.1278622479       -0.6089071786       -1.1372757317
 O         2.9640589562        1.0000545391        1.0165674923
 C         2.6763444950        3.2959012243        2.5303249627
 C         1.4957200337        3.9827869463        1.8372769478
 C         0.0338597794        3.7122635113        2.2348071722
 C        -0.1294886026        2.1921877150        2.0029516132
 C        -0.6939874646        1.1240460189        2.8994708431
 O         1.7012900039        4.7270236477        0.8439582432
 O         0.3273271374        1.7468357045        0.8473189301
 C        -0.2447065675        4.2011197164        3.8032444194
 C        -1.1160995357        4.2732469550        1.3279006579
 C        -1.8567560044        1.2963650897        3.8291262346
 C        -3.2558889846        1.5084298455        3.1996634284
 C        -4.4475367161        2.1065116970        3.9505706597
 C        -5.5719953628        1.0976689127        4.3192389441
 C        -5.1529364034       -0.4142293036        4.4918780216
 C        -4.0319713587        2.7019164089        5.3102568338
 C        -4.8985105571        3.2925160530        2.8997299858
 O        -3.5358650946        0.8880413834        2.1902358147
 O        -6.7630547750        1.3769844102        4.4546958347
 C        -5.9905600412       -1.0392256887        5.5226034209
 C        -7.0031054179       -2.2175099513        5.0220331117
 C        -7.3766359448       -2.8151066456        3.6204375303
 C        -6.1690918623       -3.3270913064        2.7658826742
 C        -5.5529131775       -2.5324053020        1.4764620498
 O        -7.6938719794       -2.6021132843        5.9131363361
 O        -5.6741204676       -4.4453199109        2.9959647333
 C        -8.3688154857       -4.0995223413        3.9480120948
 C        -8.1676608906       -1.6589121336        2.8821905305
 H        -4.8770089022        2.0180093809       -9.9902440887
 H        -4.4098968531        0.6144454184       -8.8086005634
 H        -6.1367010939        1.1015280405       -9.0888286051
 H        -3.5048974569        1.6991872034       -5.7089776664
 H        -2.4346990416        0.5997073426       -6.4370911880
 H        -3.2817849272        5.1635783752       -8.9268119885
 H        -4.7941322015        4.1523613619       -9.5943647740
 H        -3.0025875150        3.7120613967       -9.8526675486
 H        -4.0949919288        5.3420411821       -6.9123554241
 H        -4.9289734209        3.8723013132       -6.1867902185
 H        -3.0924631396        4.3622402175       -5.8698692047
 H        -0.5629429599        2.7732744414       -5.8496402036
 H        -1.7222238337        3.2166117814       -4.9138851199
 H        -0.3836143318       -1.2897147234       -3.1204536605
 H         1.1641939762       -1.3587535041       -4.0954099072
 H         2.7489969041        1.3999712645       -4.4895566132
 H         1.4765984139        1.7463796607       -5.7554449271
 H         1.7347957436        0.1298903077       -5.0242341547
 H         1.6996092091        3.1564923349       -2.9828038820
 H         0.1469942033        3.6078747146       -3.9515892221
 H         0.2007822373        3.0962301534       -2.3590945767
 H         2.0999161735       -1.8253312223       -1.7968663230
 H         1.3066998661       -3.1877771992       -2.6355254263
 H         2.1707773126       -4.5226707467        2.5079209256
 H         2.7753694771       -5.2244012710        1.0638369710
 H        -0.2342146929       -4.5852368435        1.8869142434
 H        -1.2189645911       -3.6047776110        0.6344815868
 H        -0.2221511108       -2.8973015067        2.0993074484
 H         1.9175989543       -4.8662849396       -1.0853439525
 H         1.0413681768       -5.6495033650        0.0993635797
 H         0.1433953982       -4.9948790278       -1.2440063261
 H         4.5545196470       -3.1526778673        2.0910968516
 H         4.3631085633       -4.5416863749        2.9160127232
 H         7.8675118688       -2.4023433050       -1.2194622216
 H         6.0370503576       -2.7479079448       -1.6572981537
 H         8.1195860082       -3.3084125704        2.7048892393
 H         7.5516736292       -5.0603339245        2.7259761149
 H         6.5530873197       -3.7071597472        3.1384044500
 H         8.5320465964       -4.0673900232       -0.1478721509
 H         8.1676862129       -5.6489795717        0.3890724170
 H         7.2544283222       -5.0507748461       -0.9359235644
 H         6.6457686672       -0.5150490064       -2.3427048015
 H         7.3789500827       -0.0634962255       -0.7704310598
 H         4.8007041359        3.3382564612        2.2521042826
 H         3.9920988461        3.8720930526        0.8853145072
 H         6.6709691761        0.8483814367        1.7704527478
 H         6.5155237863        2.5983299297        1.4818023414
 H         7.4099580319        1.6644261742        0.3278471539
 H         5.8555723123        3.2966729676       -0.7590734332
 H         6.0802205565        2.3514815422       -1.9188476757
 H         4.2898422021        2.6470932791       -1.3349737428
 H         2.3173877276        2.3500464943        2.8997053424
 H         2.9489653598        3.7275019988        3.4046705344
 H        -0.7391102148        0.2055833447        2.2644952403
 H         0.0898864037        0.7462367017        3.5840638015
 H         0.1077829927        3.4089784815        4.3960676320
 H        -1.3218445432        4.2279386656        3.8380206840
 H         0.4022410315        4.9581665394        3.9747494467
 H        -1.1058234979        4.1276572269        0.2912695643
 H        -2.0663571447        3.9282511872        1.8647703211
 H        -1.1821900727        5.3565559280        1.4590509148
 H        -1.4225757830        2.0685465581        4.5573675026
 H        -2.1274830765        0.4150283493        4.3130710446
 H        -5.1478111060       -0.7633560844        3.4771167253
 H        -4.1296625989       -0.4415164959        4.8727064677
 H        -3.7479333184        1.9192004700        6.0145234730
 H        -4.8604997090        3.2058647156        5.7383890884
 H        -3.2178601809        3.4130112581        5.4042077494
 H        -4.1699658445        3.7118710580        2.3401477939
 H        -5.7655097226        3.0050498500        2.3637986074
 H        -5.2432062148        4.0970710682        3.5045883577
 H        -5.2104480272       -1.4786600418        6.2235942935
 H        -6.4568518456       -0.2382664719        6.1251086336
 H        -5.4416196575       -1.4782603833        1.8247217761
 H        -4.5976884662       -2.8816739826        1.1776102429
 H        -6.1829829095       -2.5626541272        0.5985766157
 H        -7.5943082704       -4.8645899602        4.0615191800
 H        -8.8633302859       -4.1664025465        3.0011160939
 H        -9.0506959172       -4.1386606500        4.8369975191
 H        -7.6121108362       -0.7897514188        2.9330544259
 H        -8.3868665891       -1.8741496916        1.7994426773
 H        -9.1867374183       -1.3972033346        3.2526010520
 Na        1.1584812318       -0.1823626390        0.3220858984
