155

 C        -5.2117871763        1.4126217561       -9.1475887487
 C        -5.0034469353        2.6249703627       -8.2717447148
 C        -3.4120564919        3.1585795350       -8.1092783019
 C        -2.6829993825        2.4094985403       -6.8597106734
 C        -3.3766313500        1.2768195040       -5.9778177370
 C        -2.5261881024        2.8284354077       -9.4914657315
 C        -3.4442120850        4.6770921401       -7.8266866373
 O        -5.9089961082        3.3249564743       -7.8394798133
 O        -1.5643283494        2.8150776981       -6.5465658374
 C        -2.7103970446        1.3090633263       -4.6220991323
 C        -1.5757530672        0.2298637067       -4.0842199428
 C        -0.2129385995        0.7839600101       -3.5326393928
 C         0.4991508863       -0.3254963890       -2.6529973112
 C         0.6700302572       -1.8134909239       -3.1965927304
 O        -1.6895444341       -0.9315022003       -4.3841409757
 O         0.8042301302        0.0008540039       -1.4505824603
 C         0.4825976374        1.0701718947       -4.9026030291
 C        -0.4015409357        2.1248514604       -2.8613669419
 C         1.3634895666       -2.5139585928       -2.0743967656
 C         0.2591752108       -2.9720654193       -1.0214046955
 C         0.7677445411       -4.1200544106       -0.0381300407
 C         2.0139311344       -3.5312409483        0.6856970978
 C         3.1502023098       -4.6404626556        1.0670877862
 C        -0.3503916633       -4.5025501150        0.9578109514
 C         1.0350952045       -5.4252304261       -0.9875946031
 O        -0.7471679368       -2.3516697918       -0.8425570167
 O         2.0757053684       -2.4843989205        1.2314367312
 C         4.5714189980       -4.0026104162        0.7209789865
 C         5.2105767026       -4.6679147513       -0.4487631654
 C         6.6111725865       -4.3405635249       -0.8492158268
 C         6.9354400005       -2.8723112561       -1.3252896449
 C         5.7112299435       -1.9103617417       -1.8965177338
 O         4.4743711975       -5.2440353588       -1.2880406930
 O         8.1007766008       -2.5791047750       -1.3490831702
 C         7.5257275027       -4.6103556789        0.4504785253
 C         7.1076728602       -5.2962696814       -1.8227386201
 C         5.5450256781       -0.3459762317       -1.9007730562
 C         4.6352566232        0.1482847638       -0.7480589250
 C         5.0055629771        1.6308830732       -0.3804030808
 C         4.1018337078        2.0479514939        0.8215422944
 C         3.9138374815        3.5414860437        1.1767696026
 C         6.4709418178        1.4747875167        0.2987633238
 C         4.8882364808        2.4184231521       -1.5854346205
 O         3.7640457302       -0.5503111167       -0.2562017207
 O         3.7006846583        1.2562174794        1.6807287658
 C         2.9321151630        3.9657551846        2.3653715721
 C         1.5778600945        4.3510603351        1.7456270984
 C         0.3023389029        4.0445374233        2.5424589921
 C         0.3871472234        2.3351129248        2.5600163819
 C         0.2133180025        1.3832604928        3.8106275772
 O         1.6131228081        4.8680970776        0.6103073952
 O         0.8825035925        1.8810439538        1.5676592000
 C         0.5720700293        4.5526732604        3.9744619605
 C        -1.0825140163        4.2927735644        2.0190897509
 C        -0.9425985619        1.5138554222        4.8383631611
 C        -2.4932947791        1.4696545459        4.3519002102
 C        -3.8385066576        2.5105822446        4.7474391988
 C        -4.9740369388        1.7424928225        5.6631898519
 C        -5.1743300632        0.2089192669        5.3753120083
 C        -3.3381085837        3.7195121279        5.4420675784
 C        -4.5864477432        2.7343965875        3.4796585637
 O        -2.8518129866        0.6494773563        3.5446544924
 O        -5.6818104595        2.5821772339        6.2173808432
 C        -6.5400321947       -0.2558230390        5.9934789420
 C        -6.9058520054       -1.7177552434        5.5558597735
 C        -7.8648050105       -2.1206938924        4.2583970130
 C        -6.9624647781       -2.5632192144        2.9454083988
 C        -7.5653648924       -3.2446105084        1.7238578968
 O        -6.5704007258       -2.6248014035        6.2581202092
 O        -5.8374158981       -2.1130331426        2.7404972158
 C        -8.5663262376       -3.4612724718        4.5190395561
 C        -8.7149535885       -0.9571109140        3.7750685862
 H        -6.1137189877        1.6052431455       -9.7198557465
 H        -4.1922343372        1.1759924223       -9.6686822412
 H        -5.2596746280        0.5478970491       -8.5459001893
 H        -4.4105114606        1.3199237717       -5.9113068003
 H        -3.0557305217        0.3991025525       -6.5437023393
 H        -1.4923195246        3.2706286114       -9.4462485972
 H        -3.0302389250        3.4291231881      -10.2987772211
 H        -2.4810996304        1.6995092702       -9.7461689676
 H        -3.2781494989        5.1825979126       -8.8071041878
 H        -4.5366296825        4.7378008820       -7.6751272781
 H        -2.8945660906        4.9627457473       -6.9475393992
 H        -2.1990655568        2.2591091763       -4.6603811303
 H        -3.5937238441        1.4368321491       -3.9586013271
 H        -0.3824890315       -2.2189808898       -3.3323033835
 H         1.0986364694       -1.8684761945       -4.1873723936
 H         1.5240307545        1.2171740339       -4.6722326729
 H         0.1507853717        2.0429668587       -5.2523394982
 H         0.2077581008        0.2259792826       -5.5566283392
 H        -1.1818327770        1.9484888239       -2.1154204357
 H         0.4727657313        2.5786550167       -2.2946046730
 H        -0.6157495030        2.8932526880       -3.5745205939
 H         2.0890673041       -1.8811917777       -1.6540824927
 H         2.0878687838       -3.3612836172       -2.3372194635
 H         3.1575645505       -4.6502821367        2.2008360420
 H         3.0270921406       -5.5596251446        0.7315631344
 H        -0.0821919060       -5.4199111700        1.5762210412
 H        -1.3505844461       -4.8738001249        0.5574182936
 H        -0.7735852023       -3.5571503174        1.4792918056
 H         2.0491090921       -5.7851904439       -1.0417982247
 H         0.2618409195       -6.1294926037       -0.7152493812
 H         0.8072176640       -5.1260041395       -2.0161870971
 H         4.4989487438       -2.9588005264        0.6477812689
 H         5.1640574377       -4.1783847507        1.6396960794
 H         5.8523750129       -2.0627572315       -3.0141846617
 H         4.7152721932       -2.3571722635       -1.9312426808
 H         8.5681583629       -4.7358856445        0.1527602371
 H         7.2501828748       -5.5500232135        0.9063048387
 H         7.3148536298       -3.8877109376        1.1871357050
 H         8.1793131239       -5.1002986324       -1.9417306582
 H         7.0278678746       -6.2594448604       -1.2956540286
 H         6.6129812150       -5.3945208106       -2.8074921496
 H         5.1086237696       -0.0471623642       -2.8329709419
 H         6.4843632244        0.2164309965       -1.9949894037
 H         5.0356354472        3.9326885875        1.5394970567
 H         3.6305652174        4.0144025569        0.2477607318
 H         6.6872738341        0.5641964380        0.7981654163
 H         6.6217291916        2.3733539563        0.9890749404
 H         7.1637363705        1.4153939094       -0.5030286593
 H         4.6188187319        3.4129762615       -1.2716529522
 H         5.6731060812        2.2235445453       -2.4108260902
 H         3.9568245547        2.2385683518       -2.1606734454
 H         2.7456179873        3.1980784629        3.0714995682
 H         3.4193240921        4.8711255661        2.7221716360
 H         0.0893325943        0.4595220667        3.2316019070
 H         1.1752287421        1.3607375972        4.4359996238
 H         1.4589399170        4.0793263406        4.3569788627
 H        -0.3627435301        4.2969435569        4.5655208950
 H         0.5688071629        5.5989432519        3.8985908074
 H        -1.3327106984        3.8617621787        1.0417262447
 H        -1.8315827161        3.9617701361        2.7394154563
 H        -1.2081930243        5.4024114893        1.9126763468
 H        -0.7968646292        2.3917814441        5.5283783548
 H        -0.8312187377        0.5946243691        5.4455949765
 H        -4.9266525317       -0.0000327221        4.3359579124
 H        -4.4531925171       -0.2494983066        5.9728233469
 H        -2.5780768442        3.6194068906        6.2996749480
 H        -4.1477843379        4.3079824516        5.9402729894
 H        -2.8183643916        4.3757698046        4.6534293021
 H        -3.9848534132        3.4260479077        3.0139740124
 H        -4.8370670619        1.9462357128        2.8035204050
 H        -5.4955245304        3.2669471974        3.6792734432
 H        -6.2883848471       -0.3692176640        7.0806241822
 H        -7.4083397009        0.4953647440        5.9789628236
 H        -7.8706658827       -2.5831892676        0.9049261980
 H        -6.8643861716       -3.9085084216        1.3540886592
 H        -8.4419071257       -3.7589275888        2.0340956703
 H        -7.8955249068       -4.3017030312        4.4662520132
 H        -9.2227141242       -3.5147156008        3.6909215340
 H        -9.1978838469       -3.4193578409        5.4165443151
 H        -8.1923848888       -0.1617533012        3.4392654027
 H        -9.5764939267       -1.1145015510        3.0602307784
 H        -9.1718848312       -0.4722670734        4.6745352652
 Na        1.5785234962       -0.2403947119        0.9140092056
