155

 C        -4.7747415452        1.1037867038       -8.8680972689
 C        -4.4812848645        2.3976818990       -8.1443560248
 C        -3.0128077974        2.7917000540       -7.8736139254
 C        -2.7374039791        2.4890050130       -6.3937122035
 C        -3.6478276534        1.3299743878       -5.6842253130
 C        -2.1436186959        2.0404672502       -8.8549919584
 C        -2.9585585293        4.4077781606       -8.2677188028
 O        -5.3959882765        3.1489954072       -7.8129448984
 O        -1.7976539495        2.9900778185       -5.7619729499
 C        -3.1264029148        0.9438250100       -4.3388486827
 C        -1.7720746026        0.2841363729       -4.3506443866
 C        -0.5430963831        0.8529242563       -3.5633990600
 C         0.0485004020       -0.2569280138       -2.5951293804
 C         0.2784631397       -1.6854301408       -3.1418093821
 O        -1.7551128633       -0.8782737640       -4.7460600944
 O         0.5232370861        0.1349150422       -1.4837217226
 C         0.4181717655        1.0926155538       -4.8331112031
 C        -0.9167599602        2.2253596747       -2.9007386563
 C         0.9547932993       -2.6480366520       -2.1838139212
 C         0.2031185310       -3.1881286899       -0.9037083615
 C         0.8153806361       -4.3994807094       -0.0818927115
 C         2.0368432771       -3.7666019537        0.5339481856
 C         3.2406687432       -4.7945475466        1.0575703266
 C        -0.2686938123       -4.7325037556        0.9290234794
 C         1.1111366486       -5.6744003494       -0.9540768872
 O        -0.8722394326       -2.6950863659       -0.6283536127
 O         2.2394153854       -2.6005809758        0.6758674202
 C         4.6401465809       -4.2231061538        0.7339574281
 C         4.9457121072       -4.5913289188       -0.7415195864
 C         6.2800742593       -4.2691090774       -1.3861123916
 C         6.4173363709       -2.8823343134       -1.9413405862
 C         5.3199122167       -1.8836527870       -2.2361354323
 O         3.9856218264       -4.8560808564       -1.5347416476
 O         7.5577458956       -2.6133993373       -2.3374036733
 C         7.5027486114       -4.5646595504       -0.4681082882
 C         6.4660861242       -5.2565515028       -2.5365868736
 C         5.8376603845       -0.4914032162       -1.6683406101
 C         4.7301163703        0.3481657716       -0.9712811633
 C         5.0827751844        1.7325714371       -0.5628200434
 C         4.1542655807        2.0803944637        0.6542487025
 C         3.9867774527        3.5476544665        1.0420679093
 C         6.4537781167        1.7494128310       -0.0076768706
 C         4.8565827344        2.6048919182       -1.8183537036
 O         3.6839705150       -0.1827613648       -0.7570475829
 O         3.5909400014        1.2680907896        1.3480574404
 C         3.1091179681        3.9536755176        2.2088544535
 C         1.6114376839        3.9547638741        1.7597098880
 C         0.5550160438        3.6040191703        2.8371367009
 C         0.3993225783        1.9846200921        3.0949389160
 C         0.0807378792        1.3988862407        4.5861469986
 O         1.3040941721        4.1460388379        0.6470254717
 O         0.7259564412        1.3367994981        2.1326785288
 C         1.0708015669        4.6387670992        4.0241866047
 C        -0.8667579881        4.0528747272        2.4763650418
 C        -1.1036085984        2.0873442358        5.3217323997
 C        -2.3506732709        1.6983200056        4.4893538654
 C        -3.6147801719        2.5918448412        4.7689917248
 C        -4.3982136899        1.7574604179        5.8137849167
 C        -4.9832708720        0.4889226108        5.3483822633
 C        -3.4055454776        4.0094944301        5.5440010372
 C        -4.2746112074        2.7932609590        3.3362429204
 O        -2.3858434097        0.5654207904        4.0013676463
 O        -4.5743267464        2.1419820557        6.9465478300
 C        -6.4453717648        0.1516211768        5.6878468168
 C        -6.7456472509       -1.2980253951        5.4953309897
 C        -7.8979951625       -1.9111950155        4.5628515320
 C        -7.3305468287       -2.0618932868        3.1595769322
 C        -7.4730124989       -3.3275620086        2.2656081813
 O        -5.8177177099       -2.0053735039        5.7957534151
 O        -6.6880997339       -1.0620728990        2.7252009890
 C        -8.5528007233       -3.1421266564        5.1396514938
 C        -9.0099687020       -0.8024905837        4.3572831004
 H        -5.7252368775        0.6742616994       -8.3284219798
 H        -5.0437885105        1.2230027013       -9.8353100658
 H        -3.9796271097        0.3420758768       -8.6745461137
 H        -4.6488411464        1.6757844598       -5.7364512370
 H        -3.4922616605        0.3969525699       -6.2591801288
 H        -1.2261189706        2.5186251669       -8.8840937636
 H        -2.4924638617        2.1864886873       -9.8308991118
 H        -1.8681371049        1.0965146133       -8.4715021698
 H        -3.5211582228        4.5703431123       -9.1795978559
 H        -3.4557351693        5.0742138760       -7.4367924577
 H        -1.9629274434        4.5493186465       -8.5813810111
 H        -2.9570278619        1.9071744171       -3.8604205090
 H        -3.7154375094        0.2950316088       -3.6704932317
 H        -0.6183981289       -2.1168948708       -3.6415667476
 H         0.9094424880       -1.4686844190       -3.9802200524
 H         1.4224974273        1.2180281410       -4.3949447384
 H         0.0453347121        1.9706300763       -5.3338048025
 H         0.4694785418        0.1595540754       -5.4491757238
 H        -1.5484894397        2.1314470161       -2.0299339635
 H         0.0378100252        2.7929937134       -2.6456129294
 H        -1.5211181800        2.8289488571       -3.6171397479
 H         1.8885568444       -2.3099562789       -1.8847067073
 H         1.2968713644       -3.5654594308       -2.7926663961
 H         2.9880642278       -4.7697374570        2.1189713260
 H         3.2438318413       -5.7873442472        0.7666350099
 H        -0.0154663508       -5.5518956202        1.5855142145
 H        -1.2114910627       -5.1009381212        0.3633367782
 H        -0.5257923334       -3.9562972788        1.7317383854
 H         1.2064060837       -5.4748585981       -2.0583195182
 H         2.0475333096       -6.2354348833       -0.6975920613
 H         0.2196662503       -6.3243400308       -0.8265034576
 H         4.6107474279       -3.2084632193        0.8012279946
 H         5.4187714115       -4.6849236009        1.3412175980
 H         5.3034024542       -1.8190985772       -3.4074455128
 H         4.2467079139       -2.1051945063       -2.0357742169
 H         8.4805185109       -4.1314476220       -0.8354099322
 H         7.5659842002       -5.6324061246       -0.3355799164
 H         7.3240073561       -4.0921547666        0.4625871969
 H         7.5657490359       -5.3630482972       -2.5687241151
 H         6.0463318608       -6.2145623850       -2.2458343246
 H         6.1362787687       -5.0711402066       -3.5783289560
 H         6.1092433626        0.1712230832       -2.4792234047
 H         6.8437208534       -0.7254427970       -1.2453354925
 H         5.0920155627        3.9779646912        0.9988138285
 H         3.4268880948        3.8321528754        0.1799486792
 H         6.3195854599        1.2391392386        0.9611262343
 H         7.0097611978        2.7755256895        0.2211658985
 H         7.1584848181        1.1711721278       -0.5688212247
 H         5.4635487349        3.5042249529       -1.9092043880
 H         5.0089955042        2.0183134758       -2.8189042267
 H         3.9461243740        3.0958764699       -1.7585782876
 H         3.1564184941        3.2608740001        3.0121064811
 H         3.3756358649        4.9165092378        2.4613537770
 H        -0.2344602697        0.3950896700        4.4430865226
 H         1.0540224903        1.5651567432        5.0454630704
 H         1.0648086199        3.9234432450        4.8210574986
 H         0.3156972393        5.3157620747        4.2849187943
 H         2.0369551822        4.9298959068        3.8968954443
 H        -1.1131201571        3.7282026218        1.5050350188
 H        -1.5577244152        3.5666764635        3.2413091253
 H        -1.0811581719        5.1514390831        2.4957101694
 H        -1.0261973345        3.1957113285        5.5567172103
 H        -1.2550689325        1.5242178326        6.2031130506
 H        -4.8512321678        0.2347069730        4.2790286745
 H        -4.4283700869       -0.2989271428        5.8812581094
 H        -2.8471173112        3.7071734855        6.4699521024
 H        -4.2954969957        4.5155567128        5.8916347546
 H        -2.8297083296        4.7632316511        4.9751749540
 H        -3.5442294369        3.2093576798        2.6978537302
 H        -4.6444005272        1.7669956936        3.0191033580
 H        -5.2538141624        3.3847983490        3.3150580040
 H        -6.7102727345        0.3930228009        6.7391489007
 H        -7.2012057767        0.6255004201        5.0157098917
 H        -8.3742808346       -3.4917738373        1.6871448383
 H        -6.7079953481       -3.1510567181        1.5845665243
 H        -7.2801466084       -4.1447945818        2.8724440115
 H        -7.7544057101       -3.8813989763        5.0812518403
 H        -9.3221968313       -3.3441009772        4.4146787645
 H        -8.9641131164       -3.1263251323        6.1695930234
 H        -8.5892997174       -0.0115657700        3.7805927058
 H        -9.9200657651       -1.0287894207        3.8093473931
 H        -9.3272982144       -0.3044049084        5.2543748982
 Na        1.8084727955       -0.1113717988        0.3239526891
