155

 C        -3.6287196763        1.6721650177       -9.9749355717
 C        -3.8826913664        1.6517571578       -8.4288691495
 C        -2.6747153537        1.7478937589       -7.5396733718
 C        -3.1347714898        2.4389477141       -6.1267821696
 C        -3.8552062846        1.5015209464       -5.0464798781
 C        -2.1143419575        0.3225699067       -7.3286062253
 C        -1.4892725095        2.5501605987       -8.2013060656
 O        -4.9620241618        1.6277372291       -7.8824981434
 O        -2.9485474836        3.6412309360       -5.9369144472
 C        -3.3601478003        1.7643381843       -3.6690036990
 C        -2.3087278869        0.5885431749       -3.1429568133
 C        -1.0960947261        1.0657585976       -2.2074964432
 C        -0.1306569476       -0.0502875428       -1.6636373761
 C         0.2091028683       -1.2740489386       -2.5145166832
 O        -2.3279600715       -0.4856471521       -3.6620241785
 O         0.3322294772        0.2786218757       -0.5662770299
 C        -0.1806732616        1.8133033241       -3.2888974473
 C        -1.4364886466        2.0790646671       -1.1072661986
 C         1.0852808824       -2.2653506195       -1.6669921843
 C         0.3087633530       -2.6824255774       -0.4161222757
 C         1.1214595928       -3.4451465777        0.8404638462
 C         2.5499308044       -3.1758621602        0.8848641353
 C         3.6934950114       -4.1523671407        0.5324722075
 C         0.5249299315       -2.9261981020        2.1361007395
 C         0.7675497114       -5.0211511847        0.7561082257
 O        -0.8559037104       -2.4414525363       -0.3020882823
 O         2.9815748379       -2.0356201462        1.3258185312
 C         4.5869172629       -3.8885289334       -0.7316708017
 C         3.9232939685       -4.5183901560       -2.1408049591
 C         4.7864085349       -4.5287300355       -3.3516671977
 C         5.5384057599       -3.1235165983       -3.4925889894
 C         5.0167356292       -1.8993367228       -4.2114700164
 O         2.7792558674       -4.8799973408       -2.1667890100
 O         6.7020513529       -3.1298498589       -3.1807313570
 C         5.9000150674       -5.6160983390       -3.1416957467
 C         3.9873448446       -4.7240392213       -4.6550662998
 C         5.5991090884       -0.7011308352       -3.2927262344
 C         4.9745100521        0.6517503351       -3.4749867451
 C         5.2207958168        1.6871614374       -2.4312285335
 C         4.4040046829        1.5073176768       -0.9199583101
 C         4.1492007272        2.7007480843       -0.0859071951
 C         6.6578709608        1.6622150170       -1.8525932270
 C         5.1174212150        3.1736318768       -3.0100938072
 O         4.4391357777        0.9658552346       -4.5589042637
 O         4.3818143804        0.3947035561       -0.4399523176
 C         3.7454530494        2.3772570410        1.3495671055
 C         2.1666371381        2.5696122001        1.4346196836
 C         1.3841262240        2.8919430343        2.8791194738
 C         0.9847528412        1.4924546294        3.6453224828
 C         0.7362782238        1.2947878221        5.1992277896
 O         1.3831606069        2.3692729575        0.5148946861
 O         1.1263687182        0.4784712840        3.0017139490
 C         2.4181377653        3.5888305448        3.8044829910
 C         0.2425837840        3.8449414176        2.5807391810
 C        -0.4579209767        2.0387318897        5.6981046428
 C        -1.7902245235        1.7682782048        5.0435247571
 C        -3.2761652309        2.4818124783        5.4795556271
 C        -3.7931893041        1.2840502620        6.4527335805
 C        -4.4637586888        0.0931784549        5.9931576540
 C        -2.9100176141        3.8159132423        6.2086277628
 C        -4.2636830650        2.7695756705        4.1632166519
 O        -1.8494303861        1.3060180879        3.9514455618
 O        -3.5391629538        1.3744150595        7.6255754263
 C        -6.0014577046        0.3005566101        6.0463172652
 C        -6.6498930814       -1.0366420854        5.7871467138
 C        -8.2590134268       -0.9638494519        5.8182570150
 C        -8.9189545078       -0.9829876866        4.3536324876
 C        -8.4014754750       -0.1224016688        3.2046669800
 O        -6.0009095447       -1.9065240753        5.2970617685
 O        -9.8822567781       -1.6966691256        4.2217808800
 C        -8.6042280353       -2.2840194102        6.4403298242
 C        -8.9179170351        0.3193165370        6.5658883859
 H        -4.3254000520        2.2812014051      -10.3856176060
 H        -2.5496157873        1.7667102175      -10.4404074003
 H        -3.9375035277        0.7559238093      -10.4874446892
 H        -4.9298107601        1.4807055001       -5.2354718153
 H        -3.5683592374        0.4640895919       -5.3265318340
 H        -1.1798058974        0.2914447718       -6.7389045612
 H        -1.8344478045       -0.1049537555       -8.3317182563
 H        -3.0030239769       -0.2589710421       -6.9505246125
 H        -0.9350781357        1.8833405295       -8.8981967133
 H        -1.9882881130        3.4414452531       -8.6850613622
 H        -0.8336022604        3.0090321514       -7.4521778464
 H        -2.8226132329        2.6855265453       -3.5752789472
 H        -4.1264690094        1.8637688049       -2.8547510398
 H        -0.7357595199       -1.7891077144       -2.7519710529
 H         0.7308819741       -0.9365426505       -3.4032821033
 H         0.7769415354        1.7358630105       -2.8434877899
 H        -0.4865720269        2.8119227023       -3.2433465963
 H        -0.0277955738        1.3037682226       -4.2158957035
 H        -1.9284133199        1.5577796231       -0.3401292531
 H        -0.5222871490        2.5528492054       -0.7312523512
 H        -2.0646953530        2.8849087198       -1.4709740549
 H         2.1412089761       -1.9372936714       -1.4483458448
 H         1.1214345406       -3.1664172219       -2.3085615195
 H         4.5465592746       -3.9882773307        1.2571775323
 H         3.3408679221       -5.1439407439        0.5036367808
 H         0.3922271325       -3.7876887839        2.8276824234
 H        -0.4627452453       -2.4668268614        1.9629181641
 H         1.1514347010       -2.0654451141        2.4219413771
 H         1.6140771867       -5.5959105350        1.0850884308
 H        -0.0779697038       -5.2848159882        1.3355913714
 H         0.6177646225       -5.2794322272       -0.2744561034
 H         4.9544811645       -2.9186383924       -0.8890166112
 H         5.4685143633       -4.4819745545       -0.5408983990
 H         5.5624994648       -2.0396172613       -5.2165461046
 H         3.9130075210       -1.7419156016       -4.4787712368
 H         6.6724077852       -5.9938581128       -3.8789138320
 H         5.3500291604       -6.4169941376       -2.6639631235
 H         6.4712291175       -5.2138981676       -2.3247016429
 H         3.1021172137       -4.0764355220       -4.6999020778
 H         4.6182625706       -4.5998300045       -5.5198911710
 H         3.5284723877       -5.6884894217       -4.6140194083
 H         6.6728124818       -0.6853144874       -3.5551888635
 H         5.6432890686       -1.0716136738       -2.2963277928
 H         5.1064457344        3.3231889971       -0.3693213448
 H         3.3197456770        3.1747289849       -0.4610143301
 H         6.8824319129        0.7011148936       -1.4761337061
 H         6.7343806095        2.3873056352       -0.9742929587
 H         7.3223187490        1.8084627776       -2.6514661878
 H         6.0154197095        3.7909833613       -3.1008505898
 H         4.6671458449        2.9049925817       -3.9924459654
 H         4.5122591381        3.7192277645       -2.3118909211
 H         4.0440620804        1.4279204963        1.7452047222
 H         4.2297209226        3.1032253125        2.0719029500
 H         0.7189988975        0.2392414402        5.2315524744
 H         1.5890993443        1.6420085226        5.6855868396
 H         2.0010683111        4.1648055123        4.6310662421
 H         3.0919019807        4.2281123658        3.4238896095
 H         3.0059796635        2.9089834291        4.3969191697
 H        -0.4974391957        3.4583584804        1.9659885778
 H        -0.3666105698        4.2097143197        3.4755900774
 H         0.7354297346        4.7373644140        2.1402018003
 H        -0.2047420529        3.1299994427        5.6530277109
 H        -0.6200025819        1.9126661874        6.7500329583
 H        -4.1969330269       -0.1030390097        4.9151596490
 H        -4.2579981790       -0.8089372345        6.5739820290
 H        -3.0503403369        3.6098407258        7.2766114489
 H        -3.6308041074        4.5278288558        5.9550713956
 H        -1.9787199122        4.2009716500        5.8868592858
 H        -4.1877731834        3.9004466978        4.0070037757
 H        -3.9430335516        2.2237852210        3.2776939891
 H        -5.3625651623        2.4793089918        4.4230093676
 H        -6.4813803041        0.8798418840        6.8166617867
 H        -6.2919384548        1.0006233352        5.1947542568
 H        -8.8344919099       -0.4368950793        2.2089559180
 H        -8.5246472730        0.9829967582        3.4932446820
 H        -7.2874322414       -0.2878530467        3.1728075750
 H        -8.1210720835       -3.0705223435        5.8489199003
 H        -9.6165240048       -2.5250534413        6.1665941324
 H        -8.3936572734       -2.3667246207        7.5205928320
 H        -8.6764539599        1.2455541787        6.1004067129
 H        -9.9929866641        0.2998173422        6.4962270431
 H        -8.4286845919        0.4409944151        7.5148605668
 Na        2.1020013237       -0.1190356027        0.6396577330
