155

 C        -3.8517901305        1.9548606756       -9.9517973797
 C        -3.8400733049        1.4984715973       -8.5265575400
 C        -2.5925177020        1.6135183567       -7.4875947870
 C        -3.0312063703        2.3228784523       -6.1381442360
 C        -3.8935185319        1.4850836953       -5.1406910042
 C        -2.0237528544        0.1317468498       -7.2157169395
 C        -1.4524935571        2.4968326483       -8.0292421052
 O        -4.9193525920        1.1263330423       -8.0257696183
 O        -2.5595115789        3.3996481686       -5.9000981116
 C        -3.4675027472        1.9453636315       -3.6937297363
 C        -2.3844641289        0.8400983246       -3.1291150196
 C        -1.1281467966        1.2273773000       -2.2248012624
 C        -0.3001978010        0.0459454864       -1.6701289552
 C         0.0447656905       -1.2991768874       -2.4374863924
 O        -2.6944726506       -0.2932858697       -3.2173199748
 O         0.2519287690        0.1937402403       -0.5960787223
 C        -0.1841612471        2.3038087470       -2.9666594595
 C        -1.7756213025        2.0146197154       -1.0163951622
 C         1.0163867081       -2.1602274668       -1.6196268961
 C         0.4218102388       -2.4066213702       -0.1980725343
 C         1.2574236532       -3.2162047558        1.0079059432
 C         2.7928971021       -3.1512131093        0.9931352736
 C         3.5812493408       -4.2383882916        0.3985501886
 C         0.6551066954       -2.6215881221        2.3432441327
 C         0.7007396761       -4.6225991594        0.8525138443
 O        -0.7787363048       -2.3448373575        0.0669924712
 O         3.3929734427       -2.1600717048        1.2439012538
 C         4.2873018333       -3.8584435420       -0.9641273882
 C         3.7692012381       -4.5301397293       -2.2455737268
 C         4.6867810755       -4.5727511809       -3.7065833087
 C         5.5705055781       -3.2416270598       -3.5737382023
 C         5.1429167170       -1.9422127325       -4.2252028455
 O         2.8105892122       -5.2542547378       -2.1954136737
 O         6.6368753845       -3.2544380766       -2.9729763595
 C         5.5576594878       -5.8282312572       -3.6375485117
 C         3.5898036519       -4.7164577369       -4.9262820821
 C         5.6047385621       -0.7328471631       -3.4297118547
 C         5.1204355656        0.6743354676       -3.7087848703
 C         5.3316984835        1.7327931779       -2.5647516266
 C         4.4119563985        1.4782053092       -1.4043935906
 C         4.2216445752        2.6711963917       -0.2403823959
 C         6.8923503294        1.7172709625       -2.0178383250
 C         4.8510133220        3.1192041614       -3.1050216920
 O         4.5535375242        0.9841290801       -4.6864348837
 O         3.9011615938        0.4023177548       -1.0473680242
 C         3.9244341497        2.3063976346        1.3173894209
 C         2.3270578380        2.5948673524        1.4974912999
 C         1.8601386748        2.8373011362        2.9579984120
 C         1.3244832598        1.4179031504        3.5359060800
 C         0.8226880591        1.3701398562        4.9229166792
 O         1.4879774615        2.2946549883        0.6267503674
 O         1.4478079250        0.4096732505        2.8622012776
 C         2.7159467473        3.5956449181        3.8339329920
 C         0.3928140549        3.5151400472        2.8229887717
 C        -0.4615273576        1.8442385467        5.4937238999
 C        -1.8129468869        1.8274718138        4.7592236903
 C        -2.9757856305        2.4266668380        5.5584812581
 C        -3.5031080620        1.3770295137        6.5526491965
 C        -4.5493036342        0.2938227886        5.9608136928
 C        -2.6761350039        3.6883980213        6.4418783079
 C        -4.1069977765        2.8084643724        4.4937619056
 O        -1.9751304066        1.2081157588        3.7232791648
 O        -3.2687133262        1.5663471465        7.7318442428
 C        -5.9709570874        0.1406421869        6.5041136811
 C        -6.8659002911       -0.8645587498        5.7073059879
 C        -8.4361333026       -1.0418242093        5.9067758790
 C        -9.1823743233       -1.0815438582        4.5155089909
 C        -8.8229337101        0.1209012794        3.6896405140
 O        -6.3781000270       -1.6828760118        4.8827296423
 O       -10.1253528711       -1.8001469150        4.1789630630
 C        -8.6091701839       -2.2456248391        6.9613214723
 C        -8.9072979961        0.2688328598        6.6330799867
 H        -4.8456911702        2.5338581531      -10.2277334840
 H        -2.9600561067        2.3623768565      -10.2331220701
 H        -3.9723166028        1.1843875784      -10.7274043623
 H        -4.8975397917        1.8427454241       -5.4218098954
 H        -4.0343089333        0.4421695083       -5.3096971694
 H        -1.7516258885        0.0796066116       -6.1328124669
 H        -1.1716647642       -0.0484453210       -7.7987519868
 H        -2.8170378198       -0.5615439137       -7.2401892518
 H        -1.1597520645        2.2127158587       -9.0321416185
 H        -1.7874900356        3.5642104262       -7.9327454295
 H        -0.5971325533        2.2887708479       -7.4030179803
 H        -3.1439609418        3.0322759514       -3.5735748993
 H        -4.2764554225        1.8142721037       -2.9878191130
 H        -0.8677390196       -1.8446733457       -2.5758135659
 H         0.5171226453       -1.0214333248       -3.4093345431
 H         0.4669810679        2.8384170443       -2.2597041095
 H        -0.8033488262        2.9101936978       -3.6766336095
 H         0.5655315959        1.6910859786       -3.4664756290
 H        -2.6452278525        1.4234886607       -0.5595294139
 H        -0.9818093807        2.1139592489       -0.2954109777
 H        -2.1572910691        2.9874053679       -1.2851969781
 H         1.9226821999       -1.5803433261       -1.4525098292
 H         1.3380516746       -3.0219683581       -2.2109411682
 H         4.4646906092       -4.4386716305        0.9662576120
 H         2.8869655475       -5.1141280887        0.2553361468
 H         0.5271511262       -3.4310667946        3.0333249391
 H        -0.3973094687       -2.1875668392        2.1469194160
 H         1.3034374516       -1.7513765437        2.7054065042
 H         0.6230085602       -5.0791914817        1.8611549034
 H        -0.3728173436       -4.6048297836        0.5069791902
 H         1.3041632381       -5.2311475444        0.1300470045
 H         4.4298749246       -2.7213298667       -1.1123258038
 H         5.3218906281       -4.2317053473       -1.0410192026
 H         5.4028582336       -1.9693642365       -5.2605249145
 H         4.0837402971       -1.8078090604       -4.2576862847
 H         5.9098755096       -5.9721180799       -4.6240695761
 H         4.9985233692       -6.7184721980       -3.2798067336
 H         6.5427443383       -5.6885012815       -3.1133809918
 H         2.6974423439       -5.0924446141       -4.4742724692
 H         3.2934602772       -3.7512095408       -5.4002814553
 H         3.8422126253       -5.5413787864       -5.6062661532
 H         6.6999250510       -0.6876570075       -3.4418649020
 H         5.4312369863       -1.1052779636       -2.3814714760
 H         5.0683313330        3.2631873220       -0.2790051481
 H         3.2989487684        3.2729795562       -0.6013368877
 H         7.1262183359        0.7586150856       -1.4843058986
 H         6.8867988917        2.4556047811       -1.2462243156
 H         7.6574154603        1.9796501762       -2.8130833283
 H         5.2332640906        3.2468022626       -4.1033112705
 H         3.7465829566        2.9549073215       -3.2221506405
 H         5.3773192328        3.8187427368       -2.4835816150
 H         4.2661854570        1.2289647931        1.5658989363
 H         4.7577131693        2.8746637118        1.7195862563
 H         1.0940389697        0.2853815985        5.1527558988
 H         1.6406774254        2.0513048513        5.3982853860
 H         2.4395983387        3.9237168706        4.8286453501
 H         2.9436882140        4.6436368558        3.3624233048
 H         3.7254765693        3.2369571162        4.0529541184
 H        -0.4001205901        2.7135826667        2.6375571668
 H         0.0602861701        3.9250512524        3.7416398799
 H         0.3109052877        4.2946012225        2.0668925550
 H        -0.3321518634        2.8903099402        5.8565594822
 H        -0.6526011386        1.2621973035        6.4669986357
 H        -4.6405322429        0.3051704845        4.9059961906
 H        -4.1148508678       -0.6876791265        6.1140363711
 H        -1.8989786088        3.5074777591        7.1338386734
 H        -3.6047065165        3.8237741140        7.0245902573
 H        -2.6331951833        4.5352849828        5.7619515305
 H        -4.2659248538        3.7745841005        4.6867313353
 H        -3.8655771072        2.6113075154        3.4394824973
 H        -4.9868175332        2.2897991360        4.6815322518
 H        -6.0344544825        0.0882857543        7.6268035166
 H        -6.4739306035        1.1002391231        6.3687574381
 H        -9.3817949297        0.0171791078        2.7980870199
 H        -9.1529219601        0.9351684142        4.2218275514
 H        -7.7958706328        0.2405151480        3.5012969127
 H        -8.5072797110       -3.2384008394        6.4813350577
 H        -9.5750850955       -2.2432573434        7.5253982695
 H        -7.7680800557       -2.1369075551        7.6535022726
 H        -8.7283360130        1.2053451688        6.0880978799
 H        -9.9825477820        0.1544964381        6.5683578351
 H        -8.4619281141        0.3249530215        7.6837270111
 Na        2.1973330004       -0.1220959861        0.6106863300
