155

 C        -4.1597492678        2.4755929869       -9.1904198754
 C        -3.7892861778        1.3206060893       -8.2688591319
 C        -2.3270482517        1.3137354244       -7.5326675147
 C        -2.5855279593        2.0419040318       -6.0469862549
 C        -3.6840042950        1.4347230206       -5.1484967667
 C        -1.8712741243       -0.0843356220       -7.2101942078
 C        -1.1336184843        1.9505820134       -8.2689141192
 O        -4.6263398539        0.4177992490       -8.0041450392
 O        -1.8447210862        2.9771713085       -5.8982468171
 C        -3.6214594246        1.7877268842       -3.5719804748
 C        -2.6893004521        0.7500455479       -2.8578133579
 C        -1.7003951915        1.4070209579       -1.7781229682
 C        -0.5254086601        0.4139517804       -1.2506590556
 C        -0.2896555257       -0.9752819672       -1.9994581582
 O        -2.7302886356       -0.4435910359       -3.2498960059
 O         0.2487010903        0.8824429236       -0.4334095309
 C        -0.6585775263        2.4001510565       -2.5767044548
 C        -2.3197509066        2.1729860207       -0.6267335813
 C         0.5527147271       -1.9756031277       -1.2754004731
 C         0.2115512150       -2.2266410148        0.1985022968
 C         1.2471599457       -3.2116101595        1.0378475485
 C         2.6661331013       -3.1299780981        0.3435085142
 C         3.3917495535       -4.4157539232        0.0174827787
 C         1.2532772567       -2.7377574859        2.4725651868
 C         0.6483405915       -4.6711619536        0.9395963141
 O        -0.8052167905       -1.8244047118        0.7483448849
 O         3.0462219581       -2.0586265310       -0.0077575788
 C         4.2674799224       -4.3166775478       -1.2010479378
 C         3.6264663446       -4.9663116650       -2.5795349397
 C         4.2845823441       -4.5084645467       -3.8778865936
 C         5.3557632657       -3.3164080599       -3.6747512601
 C         4.8586698202       -1.9142110350       -3.8667310792
 O         2.6885238477       -5.6658831204       -2.5526033039
 O         6.4460200176       -3.7319327627       -3.3087149271
 C         4.8397496601       -5.8169018945       -4.4918206308
 C         3.2586764772       -4.1358997840       -4.9653743461
 C         5.5954689283       -0.8405593975       -3.1967022743
 C         5.0361639538        0.5175728681       -3.7543141882
 C         5.2394316015        1.7498290554       -2.9041560275
 C         4.3277429848        1.7299007630       -1.6088540166
 C         4.5736019021        2.7358840828       -0.3196796206
 C         6.6824294363        1.8600636144       -2.3081842473
 C         4.7252580226        2.9502560020       -3.7542064772
 O         4.6261755084        0.5034605784       -4.9115027894
 O         3.4601540258        0.8727866419       -1.4097991563
 C         4.1635482273        2.0982680788        1.0468528428
 C         2.7060812735        2.6960344180        1.3971085905
 C         1.9988025168        2.7384648364        2.8561630342
 C         1.6750698770        1.3288327028        3.3846479044
 C         0.7441427766        0.9079391065        4.5558137623
 O         1.9103756434        2.8720762146        0.4422710857
 O         2.3464335710        0.4214105832        2.8816939363
 C         3.0336784531        3.0677680517        3.9555442322
 C         0.8955649153        3.7543968110        2.7603017353
 C        -0.0505608548        1.9086528250        5.3676131768
 C        -1.5918198824        1.8173416835        4.8510483050
 C        -2.8664701053        2.2428253881        5.6263060263
 C        -3.5037316244        1.0862399752        6.5297070095
 C        -4.4322860768        0.1850613384        5.8554377874
 C        -2.4179364924        3.3040681618        6.7537887745
 C        -3.8396880466        2.8044065551        4.5211450329
 O        -1.6649981719        1.4224003264        3.7270412457
 O        -3.2585889371        1.0321675449        7.7016839976
 C        -5.7306551401       -0.0841827915        6.6569957380
 C        -7.0071915898       -0.3265150375        5.7481251078
 C        -8.4106214287       -0.7719605327        6.4240056555
 C        -9.5241455437       -0.8794093443        5.1598767900
 C        -9.8076596182        0.2814631518        4.1623145469
 O        -6.8905470821       -0.3173290884        4.5381279721
 O        -9.9052417566       -1.9612439786        4.7680357362
 C        -8.1463782884       -2.0941143972        7.2374070709
 C        -8.6343770870        0.4269422632        7.3245327737
 H        -4.9337644987        2.1796199845       -9.8365709693
 H        -4.4719012845        3.4676578741       -8.6334334867
 H        -3.4234351989        2.8251075204       -9.9062629674
 H        -4.5093985242        2.0254147635       -5.5722913844
 H        -3.9641365071        0.4660824944       -5.4709204716
 H        -0.7860098113       -0.2274490668       -7.1912630225
 H        -2.3393827117       -0.7348383034       -7.8776279971
 H        -1.9782306092       -0.2933422349       -6.1781528329
 H        -1.0502428527        1.3541039448       -9.1972315972
 H        -1.4935881296        2.9990751728       -8.7047337846
 H        -0.2008003869        1.8912856592       -7.8581180153
 H        -3.4359384612        2.8574823989       -3.2451943195
 H        -4.6002987970        1.5575242552       -3.1474458393
 H        -1.2480608418       -1.3851077762       -2.1386522848
 H         0.1254742847       -0.6899093389       -3.0033321314
 H         0.0903445271        2.6099289041       -1.8395654995
 H        -1.1636012175        3.3758923085       -2.7839388712
 H        -0.4104993756        2.0957270507       -3.5607918160
 H        -2.6903475842        1.4818437132        0.1881678718
 H        -1.6576556466        2.8522368897       -0.1580136377
 H        -3.1400132625        2.7078020746       -1.0085580764
 H         1.6037938842       -1.6892794650       -1.4241018714
 H         0.6034325354       -2.9037559775       -1.8497650678
 H         3.9922305756       -4.6684477304        0.9301959947
 H         2.6132243055       -5.1810972452       -0.2274284310
 H         2.0343712722       -3.1836575312        3.0965626468
 H         0.1171313479       -2.8447066950        2.7941780546
 H         1.6370714754       -1.6427274908        2.4986087581
 H         1.3683795316       -5.4287439076        1.0386324664
 H        -0.1118509183       -4.8505519204        1.6972597034
 H         0.1420841933       -4.7320301502       -0.0528092896
 H         4.4733498326       -3.2229462697       -1.4973727777
 H         5.1946535734       -4.7614601251       -1.1455668489
 H         4.9138536018       -1.5339837862       -4.8829215181
 H         3.7750073105       -1.8313021329       -3.7215725289
 H         5.4341280072       -5.5968454518       -5.3753306897
 H         3.9662304832       -6.4140351366       -4.8588038978
 H         5.4885743210       -6.4488808973       -3.8050550968
 H         3.4094413200       -4.6169134086       -5.8866146473
 H         2.3510983580       -4.5745262978       -4.5842739330
 H         3.2240365244       -3.0741340558       -5.1970301912
 H         6.6328308004       -0.8852002549       -3.5872252806
 H         5.5771169390       -1.0837665019       -2.0928078875
 H         5.6684669878        2.7306323803       -0.3623753558
 H         4.0707201369        3.6923333438       -0.4303698719
 H         6.8123898560        1.0337098985       -1.6378337754
 H         6.9271137936        2.8465580825       -1.7627032985
 H         7.3664381974        1.9496267253       -3.1489294858
 H         5.0034939374        2.6316689351       -4.7470662542
 H         3.5310287540        3.0732867431       -3.7896857904
 H         5.3232898185        3.7807625571       -3.4332166833
 H         4.1041329524        0.9938366524        0.8499258847
 H         5.0138262842        2.4384301608        1.7320915854
 H         0.1323653524        0.1542390353        4.0140052581
 H         1.4099304985        0.2944351163        5.2196994211
 H         2.5511750390        3.4550281497        4.8866031408
 H         3.5046119354        4.0107103382        3.7363268405
 H         3.9174652402        2.5415387872        4.2249831503
 H         0.0957848400        3.2301293945        2.2459942712
 H         0.5550819115        4.0533484345        3.7801613901
 H         1.0682700412        4.6728349354        2.1478296739
 H         0.1259053241        2.8882756867        5.1325850463
 H         0.1540414832        1.5730799472        6.4308677767
 H        -4.6648084440        0.3261635539        4.8158348387
 H        -3.8595033522       -0.7476462638        5.8551537735
 H        -2.1263168674        2.6964310343        7.5852385920
 H        -3.2698199244        3.8549711539        7.0477205654
 H        -1.6228149680        3.9094991929        6.4342454030
 H        -3.2044677939        2.8806928156        3.6874315656
 H        -4.6259997055        2.0928367342        4.3029766859
 H        -4.2793307085        3.8167843938        4.6989212101
 H        -5.4418842726       -1.0546251316        7.1934121647
 H        -5.9018667520        0.6416054375        7.5166806554
 H        -9.9022969941       -0.1630312328        3.1214793213
 H       -10.8047633205        0.6701533677        4.3636136269
 H        -9.0385769062        1.0550859016        4.2270248154
 H        -7.1418325649       -2.4367272915        6.9879772301
 H        -8.9307596434       -2.8534097360        7.3165063545
 H        -8.0115908105       -1.8485473168        8.2799131939
 H        -8.3807521519        1.2292713950        6.7353205938
 H        -9.6756174008        0.3668052327        7.6061050853
 H        -8.1290918060        0.3488488371        8.3175948073
 Na        2.1966153493        0.1381077160        0.2757501432
