155

 C        -4.1595010363        2.5004001288       -8.5163823797
 C        -3.6310514289        1.1965128620       -8.0296051843
 C        -2.2492076206        1.1180047316       -7.3558385360
 C        -2.3328810890        1.8107886233       -6.0691288220
 C        -3.7161062631        1.4911220271       -5.2565044299
 C        -1.8731167198       -0.4761340832       -7.2455102472
 C        -1.2946461352        1.9443004767       -8.3158841587
 O        -4.3825052268        0.2631339367       -7.9573861157
 O        -1.5977757609        2.7034387463       -5.6005151972
 C        -3.6474895898        1.8938358055       -3.8563770103
 C        -2.7440219061        0.9434843222       -2.9717899073
 C        -1.7215667249        1.6175516965       -1.9219601190
 C        -0.7065310058        0.4387378679       -1.3113932109
 C        -0.8577867110       -1.0246536840       -1.7333708563
 O        -2.7899115883       -0.2125977436       -3.1526429700
 O        -0.1245692195        0.6875084777       -0.2703188760
 C        -1.0299285765        2.7772979923       -2.6922122623
 C        -2.6177578557        1.9861647632       -0.6499836220
 C         0.2727190768       -1.9343838850       -1.1413501952
 C         0.2211599952       -2.1317747975        0.4244754197
 C         1.2217097998       -3.2981695762        0.8727270996
 C         2.5608976560       -3.3281526849        0.1046899675
 C         3.3041748356       -4.6573089645       -0.1634153597
 C         1.5263163393       -2.9175455236        2.4260900971
 C         0.3427165614       -4.6374221203        0.9322762707
 O        -0.6437573841       -1.6190429608        1.1102153388
 O         3.0691813219       -2.2159948515       -0.2264455731
 C         4.2975904419       -4.6105051152       -1.3762590628
 C         3.5571101611       -5.0294596871       -2.6511744954
 C         4.1637839926       -4.5721369172       -4.0941059764
 C         5.2302927727       -3.3958127622       -3.9787410684
 C         4.6158923133       -2.0118467161       -3.8350802182
 O         2.4862055573       -5.6674028309       -2.5554886295
 O         6.3667956938       -3.7498046481       -3.7167884088
 C         4.8718034476       -5.7510574412       -4.6760905781
 C         2.9090298649       -4.1546514925       -4.9171592979
 C         5.4769294589       -0.9238614409       -3.0131513417
 C         5.0672200329        0.3969169053       -3.6292815076
 C         5.3367859219        1.8309456897       -2.9300969305
 C         4.4422280658        1.7589303254       -1.4936378347
 C         4.7969878929        2.6762814149       -0.3542921716
 C         6.8539324819        2.1056553473       -2.7487469411
 C         4.8079000874        3.1751115398       -3.7089724940
 O         4.5338917189        0.4302942336       -4.7083727814
 O         3.5319938020        0.9889222394       -1.5198254325
 C         4.2663900075        2.3585877434        1.0539524287
 C         2.8034858556        2.8328213506        1.3321281003
 C         2.2751924857        2.7141112935        2.7719310980
 C         1.8167587518        1.2534793232        3.1478148793
 C         0.8824604709        0.8309628828        4.3548877938
 O         2.0782787554        3.2464445192        0.5138386028
 O         2.3137096010        0.3345309967        2.5272422631
 C         3.2962760225        3.2045324422        3.7393387389
 C         1.0454329281        3.7380036810        2.9485423631
 C        -0.0317686911        1.6034756921        5.2565044409
 C        -1.4807745915        1.6649018886        4.7356478550
 C        -2.6539240409        2.2272176348        5.7499888817
 C        -3.3346907719        0.9923944697        6.3691635212
 C        -4.2847264830        0.0017538739        5.5773048662
 C        -2.2233561548        3.3304966169        6.7615050481
 C        -3.7747574894        3.0963982851        4.7795536773
 O        -1.8010160394        1.2762018049        3.6102454425
 O        -3.1858238378        0.7029362159        7.5627051600
 C        -5.6535184257       -0.1213581090        6.3904798374
 C        -6.9116895368       -0.1484639120        5.6295995402
 C        -8.2059958307       -0.6349265930        6.3450493492
 C        -9.4321646280       -0.8568522894        5.4868377969
 C       -10.0823294936        0.4127955264        4.9509478418
 O        -6.9632122442        0.4091178381        4.5371939835
 O        -9.7768219346       -2.0348256466        5.3670601465
 C        -7.9694492563       -1.9124859247        7.2190314689
 C        -8.7010641522        0.4967252536        7.3438557423
 H        -4.4617413100        2.6379499088       -9.6635165996
 H        -5.0330377419        2.6846174237       -7.9814356913
 H        -3.5036331445        3.3614547237       -8.3760521500
 H        -4.6648972844        1.8003136615       -5.7792756967
 H        -3.7583198332        0.3426533642       -5.2671266626
 H        -1.0709711781       -0.8297119721       -7.8455966568
 H        -2.8520891243       -0.9435722407       -7.4364731249
 H        -1.5563193151       -0.7311918095       -6.2329988389
 H        -1.2715452656        1.7355568072       -9.3564443069
 H        -1.5549338050        2.9394131460       -8.2715138450
 H        -0.2321038026        1.7925792750       -7.9317775327
 H        -3.1628665844        2.8211881833       -3.7064061515
 H        -4.6694368245        2.0117118508       -3.4387717843
 H        -1.8788343831       -1.3099945299       -1.2917503629
 H        -0.9855670164       -1.0173979386       -2.7796959531
 H        -0.2247604557        3.2463510502       -2.0860023604
 H        -1.6477217999        3.6229551361       -2.9233737399
 H        -0.8819636804        2.4070928226       -3.7360499686
 H        -3.1267918649        1.1822183775       -0.1888892757
 H        -1.9250113434        2.3646404660        0.1493583589
 H        -3.2715547447        2.8661484032       -0.9044838029
 H         1.2352284352       -1.5727244263       -1.4363119073
 H         0.3228680366       -2.8938513157       -1.6865928483
 H         3.9058150341       -4.9301578251        0.6862366423
 H         2.5033434979       -5.3627361432       -0.3617827986
 H         1.9776955901       -3.6372620647        3.0199177360
 H         0.6331863398       -2.5723141876        2.7890320146
 H         2.3215995584       -2.2847248270        2.4458077763
 H         0.4128626977       -5.0923363843        2.0032862529
 H        -0.6812759094       -4.2671362044        0.7167062766
 H         0.5069674655       -5.4029613391        0.1661696093
 H         4.7025412286       -3.6705630590       -1.6322031643
 H         5.2124561749       -5.3581260457       -1.1895701947
 H         4.5026804269       -1.4954324825       -4.7906222535
 H         3.6198030576       -2.0515801556       -3.4371038954
 H         4.8014932064       -5.9778749907       -5.7550048299
 H         4.3996069161       -6.6113548164       -4.2160565572
 H         5.8824767793       -5.7395293974       -4.3216941505
 H         3.1508725403       -3.3706016064       -5.6687706705
 H         2.7437669957       -5.0603829308       -5.5036840225
 H         2.0443165527       -3.8375943634       -4.3252573855
 H         6.5468946418       -0.9750353760       -3.2595418971
 H         5.3344950060       -1.1117741451       -1.9756095379
 H         5.8819983376        2.7825819463       -0.4499930977
 H         4.1532376107        3.5981091376       -0.5953847065
 H         7.1487239029        1.8901909281       -1.6901696115
 H         7.0111380144        3.0929711650       -2.8525365308
 H         7.5185212452        1.6757054921       -3.5216920377
 H         5.5814073768        3.5978852616       -4.3529776423
 H         4.0646756854        2.7516205504       -4.3041522830
 H         4.2975185364        3.9069512048       -3.0324052825
 H         4.1769351154        1.2647020092        1.1975949899
 H         4.8636359320        2.9085165666        1.7519921896
 H         0.5225627711       -0.1641457786        4.0185272837
 H         1.7558094114        0.5515558246        4.9924835364
 H         2.9845344375        3.6464931089        4.6551448530
 H         4.1327998409        3.9216308269        3.4943545701
 H         4.0248267742        2.4268402997        3.9789265492
 H         0.0776110272        3.4997484166        2.4059864714
 H         0.9779590221        4.0847972447        3.9464479304
 H         1.3878108267        4.5937341806        2.4213245884
 H         0.3920482834        2.6347653671        5.5567484565
 H        -0.3262621689        0.9539467702        6.0315372049
 H        -4.5557823388        0.4070431235        4.5933445632
 H        -3.8260318763       -0.9944136846        5.4612896752
 H        -1.7131508731        2.9615512543        7.6508044990
 H        -3.1652043151        3.8792124612        6.9731466576
 H        -1.4771112084        3.9577974474        6.2126769457
 H        -3.6165261811        3.2790197163        3.7304920649
 H        -4.8259849050        2.7092615381        4.9220188180
 H        -3.7122115573        4.0176806748        5.2172790802
 H        -5.5273039048       -0.9259251960        7.0413891826
 H        -5.7820611030        0.6831601298        7.0608935128
 H       -10.2842222126        0.1202343536        3.9774430835
 H       -11.0220075087        0.6188830834        5.3789117580
 H        -9.3827007259        1.2142840071        4.9357933870
 H        -7.0806780456       -2.4589113803        6.9546993928
 H        -8.8495791018       -2.5337864531        7.0969170880
 H        -7.9925300191       -1.8674957132        8.3164154505
 H        -8.4528000463        1.5349093805        6.8801340449
 H        -9.6578244035        0.1969899863        7.7864536251
 H        -8.0579785555        0.3372462071        8.1649365075
 Na        2.0930108134        0.1700478537        0.3180898578
