155

 C         7.6497839602       -6.4567508473        7.4909523596
 C         6.2176033470       -6.4238019732        7.3265033707
 C         5.2824895109       -5.6112259960        8.3266414840
 C         5.1811165646       -4.1617822397        7.7916219508
 C         4.1026392784       -3.6845325025        6.7503871731
 C         3.9011912050       -6.3070136015        8.1877050088
 C         5.7960136869       -5.5309260820        9.7469798519
 O         5.6373617669       -7.0528598716        6.4563365201
 O         5.9053039871       -3.3261588420        8.2730984959
 C         4.0821312837       -2.1478530339        6.6528003506
 C         2.8042537884       -1.7574664396        5.9299014120
 C         2.5064287171       -0.2169253915        5.6122949580
 C         1.0972428145       -0.1237511717        4.9420836285
 C         0.9028267772       -0.5037862677        3.4354765813
 O         1.9685817855       -2.5618460525        5.5977016226
 O         0.1492350079        0.2093049652        5.6545520130
 C         2.4999365187        0.6138028682        6.9667375506
 C         3.6345911459        0.2925883610        4.6235243602
 C        -0.3496011463        0.1115380760        2.8252219434
 C        -0.3092167136        0.3982919097        1.2899873057
 C        -0.5808825576        1.8694820760        0.7412410919
 C         0.6128862244        2.1703733491       -0.2683816762
 C         1.9195836433        2.7139540967        0.2749844502
 C        -1.8798697737        1.8777809811        0.0663218393
 C        -0.6090911414        2.9745139783        1.9056490708
 O         0.1007129051       -0.4972928224        0.5737712213
 O         0.4930430904        1.7645901472       -1.4115058868
 C         3.2964015902        2.5440271680       -0.5133321446
 C         4.1782094075        1.3765382422        0.0205027441
 C         5.3750457551        0.9296658380       -0.9208413918
 C         5.0202569025       -0.5311418165       -1.6260497202
 C         4.4741558332       -1.6986166822       -0.7804839409
 O         4.1033054329        1.1006437316        1.1690867305
 O         5.3217060350       -0.6487169594       -2.7896362704
 C         5.6217420905        2.0433634610       -1.9433758324
 C         6.6568348747        0.7028557970       -0.0351255140
 C         3.7533458163       -2.7891160109       -1.5895264108
 C         2.2207532869       -2.5558181453       -1.6615215168
 C         1.2311224341       -3.7440353747       -2.1025565395
 C         0.0570353740       -3.3020835891       -3.0537730950
 C         0.3222650957       -3.1016938739       -4.5537456724
 C         2.0803484281       -4.7613491565       -2.8455473843
 C         0.6070272255       -4.3775009045       -0.8201465867
 O         1.8020014473       -1.4616315615       -1.3690952376
 O        -0.9167367329       -2.7971081009       -2.5263177664
 C        -0.9784850674       -2.7039972579       -5.2320738674
 C        -1.2120010113       -1.2242050629       -4.8531647753
 C        -2.4381959454       -0.4205190630       -5.0341442311
 C        -3.0968758556       -0.0187157240       -3.5960713456
 C        -4.6294325133        0.1403365579       -3.5568072913
 O        -0.2312936084       -0.6219897836       -4.3776490617
 O        -2.4306447681        0.0386778840       -2.5747523947
 C        -2.0517302595        1.0028982182       -5.8007634822
 C        -3.5094384853       -1.0956374872       -5.9197297531
 C        -5.2502397727        1.0073282985       -2.3852728080
 C        -6.8481255809        1.0730458495       -2.4002331579
 C        -7.6803773980        1.8433017712       -1.3209279145
 C        -7.3307375476        3.5131384856       -1.6052465110
 C        -7.8723594627        4.1450857749       -2.8938678896
 C        -9.1879451657        1.7144574917       -1.3490587932
 C        -7.2529321606        1.4338779644        0.0206970896
 O        -7.4022573752        0.6462121087       -3.3917149119
 O        -6.7074299937        4.1225159217       -0.8119160728
 C        -7.5509359383        5.6581145308       -2.9865904087
 C        -6.1090273368        5.7103597362       -3.7786865581
 C        -6.1177384363        6.1613712615       -5.3179782584
 C        -6.8117503897        4.9136668850       -6.1698689030
 C        -6.1167165530        4.1576061624       -7.2413508717
 O        -5.1594433039        5.1805520521       -3.2810540367
 O        -7.9901112353        4.9257188492       -6.0603936973
 C        -6.9433925997        7.4875869128       -5.5342162614
 C        -4.5955471391        6.3523049704       -5.5940293068
 H         7.8661568973       -6.9998556160        8.3997520478
 H         8.2897772950       -6.9474676540        6.7312723241
 H         8.0904459175       -5.4771790293        7.7329561637
 H         4.3817555459       -4.2177833828        5.8449678356
 H         3.0978743001       -3.9616138728        7.0512144418
 H         3.5800675285       -6.4889854051        7.0981675279
 H         3.0028997245       -5.8814490039        8.5188381387
 H         3.8960010620       -7.3174163733        8.5956438445
 H         6.6754019929       -4.9121134954       10.1103886444
 H         4.9735297548       -5.1499539486       10.3945153038
 H         5.9102881565       -6.5178942279       10.1392021393
 H         4.0972494042       -1.7193153439        7.7042969262
 H         5.0617139573       -1.8708494242        6.2135831082
 H         1.7605739533       -0.2943662021        2.8557622564
 H         0.7518464271       -1.6491175637        3.4867307416
 H         2.5644221077        1.6748108573        6.6948014964
 H         3.3328655285        0.2413120449        7.6052032567
 H         1.6098570723        0.3097720420        7.4306926832
 H         4.2851355753        1.0432247808        5.1915789932
 H         4.2397175661       -0.4750561037        4.1549880542
 H         3.1797802701        0.8572397059        3.7641348262
 H        -0.7889473801        0.8861033877        3.5181517711
 H        -1.0802396907       -0.6738103930        2.9407439327
 H         1.7737349437        3.7483951276        0.5135363482
 H         2.1123990433        2.2169715364        1.3247868576
 H        -1.9010850775        1.1737618112       -0.7437775369
 H        -2.2522656238        2.7983393599       -0.4250133151
 H        -2.7035717657        1.6764745792        0.8213049385
 H        -1.5425638920        2.8714989809        2.5036319717
 H         0.1810638299        2.7331306236        2.6264548966
 H        -0.5863116441        3.9829296010        1.4033523276
 H         3.1293220624        2.5611663912       -1.6197969272
 H         3.9315282944        3.4438126101       -0.4074423653
 H         5.4494405511       -2.0726416054       -0.4273223292
 H         3.7716885166       -1.3126361725       -0.0383928049
 H         6.0965236068        2.9015640830       -1.5014175765
 H         4.7274171629        2.3067890204       -2.4611509828
 H         6.3448062292        1.7907220369       -2.6896046349
 H         6.7973742434        1.6149873466        0.5564471322
 H         6.4576296659       -0.1431254257        0.6252385760
 H         7.5707635518        0.5568767815       -0.6226070843
 H         3.9571053767       -3.8576542711       -1.3064371695
 H         4.1312034917       -2.7839919266       -2.6216261188
 H         1.0356983101       -2.2918588779       -4.5970945774
 H         0.7135246223       -4.0237656741       -5.0540958635
 H         2.7207618342       -4.3097815288       -3.6058872377
 H         1.6356045247       -5.5920378476       -3.2825690174
 H         2.8855374480       -5.1601154353       -2.2065981879
 H         0.0450202130       -5.2807074321       -1.1163782834
 H         1.4628068098       -4.5818638462       -0.2016275676
 H         0.0259685377       -3.6290694499       -0.2377428797
 H        -0.9701007303       -2.8050542157       -6.3173581733
 H        -1.7596352683       -3.3326710433       -4.8710267656
 H        -4.8612297057        0.5788186107       -4.4347452843
 H        -5.1605600572       -0.8173920630       -3.5885671727
 H        -0.9331306657        1.0728874401       -5.8740898484
 H        -2.6182995905        1.7582678454       -5.2521585312
 H        -2.5141153952        0.9456592531       -6.8159099755
 H        -4.3122295948       -0.3204197955       -6.0611734703
 H        -3.1233699599       -1.3131552364       -6.8543159445
 H        -3.8521033439       -2.0759604389       -5.6173177714
 H        -4.6657503113        1.9804224910       -2.4579057162
 H        -4.9365418829        0.5867032208       -1.4281459494
 H        -7.4830204582        3.6109633372       -3.7253397781
 H        -8.9763454887        4.0822186321       -2.8673193091
 H        -9.5747869437        0.7510990103       -0.9455796608
 H        -9.7401796605        1.8589231071       -2.2354971508
 H        -9.6413192060        2.3888190230       -0.6146005447
 H        -6.1983532351        1.1479839266        0.0542352291
 H        -7.3658726021        2.2288787425        0.7764597162
 H        -7.7994734571        0.5700251355        0.5521246789
 H        -8.3476957804        6.0007563378       -3.6848476980
 H        -7.6495996866        6.2924870444       -2.0395181208
 H        -5.6226939193        3.2155953076       -6.9532305076
 H        -6.7046842295        4.0895146151       -8.1822635023
 H        -5.2778997995        4.7989216493       -7.5756055323
 H        -6.4234092282        8.2277307992       -6.2059671359
 H        -6.9037289473        8.0413345324       -4.6526894937
 H        -8.0134946788        7.3111401030       -5.7031839484
 H        -4.3887352454        6.3099057405       -6.6817984489
 H        -4.2440074013        7.2754580070       -5.1926210925
 H        -4.0315702910        5.4883675038       -5.0962188393
 Na       -0.1364153737       -0.4525977059       -1.8700776237
