155

 C        -3.0222842811        2.2356989814       -8.4317645083
 C        -3.4540890507        0.8690988495       -7.9022486685
 C        -2.3186036398        0.0965476681       -7.0383742280
 C        -2.1325765931        0.5128630252       -5.5715409423
 C        -3.4096352569        1.2297176776       -4.6476633135
 C        -2.8160010288       -1.4497200711       -6.9163050765
 C        -0.9591825155        0.0703656893       -7.7687071141
 O        -4.5856837891        0.5246865314       -7.9876560333
 O        -1.0694687085        0.3977669032       -5.0315079382
 C        -2.8074196307        1.7149229683       -3.2650413426
 C        -2.9514483144        0.7311688877       -2.0285876405
 C        -2.3810352838        1.2082682060       -0.5874688322
 C        -1.7198717755       -0.0801980301       -0.0772121778
 C        -2.5351132126       -1.2768743517        0.6349161572
 O        -3.6504475228       -0.2615820362       -2.1653038224
 O        -0.6490876672       -0.3706281358       -0.6320446738
 C        -1.3252740557        2.3504051880       -0.5033198055
 C        -3.5178555908        1.6154906638        0.2927251205
 C        -2.0124187675       -2.5542216804       -0.0667366793
 C        -0.5995651735       -2.9387697583        0.3145696953
 C         0.1244699493       -4.2186204439       -0.3843749594
 C         1.6586312706       -3.8162063883       -0.8028650720
 C         2.6759148282       -4.9029845928       -1.2640928000
 C         0.1304453827       -5.3043944767        0.8523218254
 C        -0.7010874611       -4.8122894584       -1.4739897831
 O        -0.0339295168       -2.2747179762        1.2180260513
 O         2.0860384140       -2.6837589306       -0.6403963060
 C         3.3422070392       -4.4136882416       -2.5790522718
 C         2.3377823916       -4.2871949986       -3.7215391337
 C         2.9330025686       -4.1155307964       -5.1867519837
 C         3.8979070808       -2.9465304021       -4.9823956493
 C         3.2596780649       -1.5046027883       -5.2023514641
 O         1.1659054459       -4.4852026658       -3.5871064221
 O         5.0692520181       -3.0686851152       -4.7558636537
 C         3.5897113823       -5.5112749153       -5.4122459755
 C         1.8716201552       -3.9172843314       -6.1985850103
 C         4.2376163337       -0.3704600023       -4.5478881930
 C         3.7350392068        0.1717055630       -3.1893891235
 C         4.5028781637        1.3687824173       -2.5156913407
 C         4.4081098235        1.4745914135       -0.9530878469
 C         5.3516996476        2.3575482746       -0.2226620052
 C         5.9887157725        1.5761607411       -2.9199354199
 C         3.6537356911        2.6265217816       -2.7942301331
 O         2.8170148306       -0.2793869523       -2.5225699369
 O         3.6123321721        0.8506618612       -0.2985857492
 C         4.9635672590        2.3724954267        1.2685848346
 C         4.1436200858        3.6777845547        1.6778137008
 C         2.6849417698        3.4853307526        2.6381848507
 C         2.2087171174        2.1789505241        2.2849604238
 C         2.3216976241        0.8322074985        3.1330679077
 O         4.3662396354        4.7704548598        1.0867768715
 O         1.7088731417        1.9898736056        1.1559545878
 C         3.0422359756        3.7097214923        4.1444725467
 C         1.7537375027        4.5624365347        2.0994452097
 C         0.9990303297        0.8682038735        4.0903853702
 C        -0.3617826588        1.5956236373        3.6489542723
 C        -1.5021364892        1.9538291038        4.7884672327
 C        -2.9723788167        1.4598180581        4.2942913575
 C        -4.1667084074        1.9497822905        5.2040695491
 C        -1.0812014986        1.3522183935        6.1012652372
 C        -1.4667755819        3.4634824954        4.9191530580
 O        -0.7450491791        1.7360937380        2.4739678472
 O        -3.1680695112        0.6271584564        3.5026635421
 C        -4.7851302366        0.7163131454        6.0280974184
 C        -5.3832500605        1.3017043677        7.3607196303
 C        -6.2769089345        0.2981179277        8.0456147747
 C        -7.6307897405        0.2919595291        6.9509324089
 C        -8.8970475984        0.7956573966        7.3811484231
 O        -5.2850301277        2.4260867287        7.8893294189
 O        -7.5178083191       -0.1712628819        5.8503443705
 C        -5.5926835284       -1.0908054748        8.1091384657
 C        -6.5647190915        0.8257955938        9.5102034389
 H        -2.4301939273        2.3029429218       -9.2748105558
 H        -3.8535620744        3.0614003828       -8.4098442273
 H        -2.5332043873        2.6545249758       -7.5897076313
 H        -3.6979699744        2.1461720849       -5.2640594553
 H        -4.2475149919        0.4504796686       -4.6185183793
 H        -3.8157226310       -1.4037109121       -7.4056540488
 H        -2.9210833905       -1.6814206374       -5.7993254912
 H        -2.2508795941       -2.2671674510       -7.4712249106
 H        -0.9698498547       -0.5950872055       -8.6439113370
 H        -0.6061371285        1.1368155368       -8.0825692546
 H        -0.1648545190       -0.1817668519       -7.1172008465
 H        -1.8797829315        2.1639884296       -3.5131053003
 H        -3.4416805277        2.6148227675       -2.9644950297
 H        -2.2335968065       -1.2159120636        1.7249972464
 H        -3.5978107240       -1.0704120485        0.4857310917
 H        -0.5443658548        1.9956021285        0.1466237452
 H        -1.6291384870        3.1894953793        0.0794281446
 H        -1.0269402002        2.8695577800       -1.4184501902
 H        -4.3181610716        0.9357340238        0.1674475613
 H        -3.2163819628        1.4625034297        1.3410312179
 H        -3.8092917031        2.6738531305        0.2128155298
 H        -2.0933178930       -2.4546303774       -1.2080565638
 H        -2.6438238618       -3.3385131469        0.2163763741
 H         3.5164268053       -4.8129757599       -0.5109358899
 H         2.1802577639       -5.8269155993       -1.1903403597
 H         0.7293471999       -6.2202922781        0.9593683389
 H        -0.9650731962       -5.6058517214        0.8759149557
 H         0.5410373095       -4.7037548847        1.7037302513
 H        -1.0193701351       -4.1297158649       -2.2040426195
 H        -0.0773613116       -5.6164510362       -1.9052034123
 H        -1.6000773042       -5.2166274400       -1.1050792913
 H         3.9853732365       -3.6317553422       -2.4315266672
 H         4.0793429006       -5.2689403792       -2.7428669027
 H         3.2725827482       -1.5911770905       -6.2741329004
 H         2.2457714800       -1.5020091381       -4.9086148025
 H         3.7554625761       -5.5729070596       -6.4413526391
 H         2.8926963459       -6.2961658213       -5.3080601383
 H         4.4867985147       -5.7528133512       -4.8802974553
 H         2.1204914118       -3.1190702406       -6.9223005224
 H         1.5535550959       -4.8722775604       -6.6318628552
 H         0.9717302234       -3.5933244929       -5.6870462171
 H         4.2240451491        0.5308621561       -5.2190046986
 H         5.2464001110       -0.8564330480       -4.2596465321
 H         6.3545482531        2.1542555563       -0.4616268036
 H         5.3025492855        3.4252003905       -0.4820813063
 H         6.3791659630        2.5912721661       -3.0986644311
 H         6.4201856017        1.1051131103       -3.8501240339
 H         6.6687319437        1.1254175089       -2.1743169964
 H         4.2093422813        3.5276204902       -2.8349278175
 H         3.0982453675        2.4014541222       -3.8435670615
 H         2.7897528805        2.7158053130       -2.0832991800
 H         4.4964175318        1.5102730481        1.7849389343
 H         5.7473986285        2.4596168958        2.0190894408
 H         2.0664753954       -0.0952915689        2.5581802015
 H         3.2741234861        0.7561170892        3.7684058001
 H         3.6919114421        4.6593550976        4.2872220370
 H         3.5562408923        2.8614359787        4.5600976818
 H         2.0422901661        3.9461286766        4.7242837955
 H         1.2374807968        4.2251143498        1.1693590300
 H         1.2608866735        4.9649972750        2.9797213215
 H         2.5052511046        5.2771431314        1.7502129818
 H         1.2213991296        1.3305468781        5.1130457046
 H         0.6612722644       -0.1209642625        4.2479709899
 H        -3.9234263321        2.7166636553        5.9970047325
 H        -4.9264972072        2.4256962110        4.5730813708
 H        -1.0377873723        0.2966516848        6.1512398325
 H        -1.7772619012        1.5559693497        6.9359777829
 H        -0.0718956746        1.6536740585        6.3417362493
 H        -2.2732045495        3.9123547620        4.4363184867
 H        -1.3873506376        4.0412074046        5.7582437174
 H        -0.6542214033        3.8884198437        4.3306880712
 H        -5.5600954754        0.2118213802        5.5119644296
 H        -3.9861088132        0.0059022432        6.2843821781
 H        -8.7506730989        1.6915605940        8.1018089322
 H        -9.5379890303        1.0696233824        6.4959023892
 H        -9.3680136374       -0.0178031763        8.0563839288
 H        -5.4986502062       -1.5567329733        7.1341113335
 H        -5.9576346751       -1.8080644978        8.8528508328
 H        -4.5590709397       -1.1176390221        8.4874310618
 H        -6.8229924997        1.8639491095        9.5214673505
 H        -7.0012359214        0.0611554575       10.1544007737
 H        -5.5559647925        0.9913450611        9.9196337572
 Na        1.5254061846       -0.2145480883       -0.1897985014
