155

 C        -2.8677304837        2.2556580848       -8.1562668542
 C        -3.3974672966        0.8158204211       -7.7750585127
 C        -2.5115717023       -0.1890438812       -6.8548649830
 C        -2.1036216843        0.5130469639       -5.4325844775
 C        -3.2227431954        1.1164266048       -4.5479705062
 C        -3.1868937831       -1.4436228146       -6.6413273056
 C        -1.1227329519       -0.3497491661       -7.6972385263
 O        -4.4873695180        0.5507412730       -8.2778268957
 O        -0.8982843398        0.5098580345       -5.1057600902
 C        -2.6992670640        1.7367079550       -3.2213009388
 C        -3.0568635144        0.8757126886       -2.0590249065
 C        -2.4417267499        1.0847044482       -0.6231324912
 C        -1.6927035125       -0.1709610107       -0.1179973189
 C        -2.3499662435       -1.2964332875        0.7267704267
 O        -3.7622286018       -0.0987851841       -2.1337958403
 O        -0.4910752668       -0.2587291261       -0.2994861825
 C        -1.4330623558        2.2932877608       -0.6024336594
 C        -3.6936301809        1.4493355974        0.3508056476
 C        -2.2229957399       -2.7514308223        0.2346093428
 C        -0.7515507575       -3.1945458629        0.3802037096
 C        -0.1851223787       -4.4044512255       -0.3772120337
 C         1.0770722048       -3.7914319951       -1.0155894488
 C         2.1607533208       -4.7890983337       -1.4169344684
 C         0.2286330627       -5.4145541536        0.6602272803
 C        -0.9946824885       -5.0006661482       -1.6576153488
 O        -0.0185896203       -2.5912455097        1.1190391453
 O         1.3704232654       -2.5956677978       -1.0848443469
 C         2.9952690138       -4.1733128316       -2.5565381872
 C         2.1950385048       -4.2042561640       -3.8027404115
 C         2.9051067682       -4.0001918446       -5.2772859257
 C         3.7614330233       -2.7472100747       -5.0751048524
 C         3.2524167664       -1.2479949633       -5.0563086050
 O         1.0210667984       -4.5678526636       -3.7906774825
 O         4.9464561351       -2.9145951606       -4.8498404481
 C         3.8566874154       -5.2084355015       -5.6772730493
 C         1.7329365757       -3.7459884841       -6.2222420857
 C         4.1025084690       -0.2325930783       -4.4722776737
 C         3.6811938051       -0.0117955235       -2.9622919397
 C         4.2826138809        1.3206244753       -2.3197282399
 C         4.5438888904        1.2507533505       -0.7840250693
 C         5.3858989057        2.3234097806       -0.0967574833
 C         5.6052187622        1.6309247501       -3.0320807837
 C         3.2776024995        2.4162056200       -2.7479459479
 O         2.9262953834       -0.7864754807       -2.4550064514
 O         4.1298462090        0.3741156520       -0.0166171775
 C         5.3107727346        2.6143442108        1.4108117012
 C         4.1877013928        3.7483732901        1.4463860665
 C         2.7829781799        3.5659356209        2.3552995622
 C         2.1146194488        2.1177931011        2.1003243091
 C         2.0689805189        1.0227977116        3.1150167503
 O         4.4367383655        4.8246980137        0.9976722537
 O         1.8847969437        1.9699029938        0.8929957262
 C         3.2655767405        3.7385262389        3.7958096180
 C         1.8141324546        4.7506481297        1.8902804914
 C         1.1005952185        1.0292650103        4.2482178409
 C        -0.3219399289        1.5004790291        3.6629883019
 C        -1.4943760432        1.9688005837        4.6806090948
 C        -2.9158903865        1.8383350258        4.2430877559
 C        -4.0521872355        2.1001292804        5.1804509755
 C        -1.3154616437        1.2430216889        6.0763485265
 C        -1.1259122414        3.4313434453        4.8495444697
 O        -0.4309317039        1.4852890350        2.4683220201
 O        -3.1062149196        1.0759741637        3.2650471010
 C        -4.2848453113        0.9940391508        6.2016294974
 C        -5.1011567155        1.3650828923        7.4821849233
 C        -6.1295929945        0.3903555579        8.2004909301
 C        -7.4427581676        0.3404062311        7.2439746382
 C        -8.7822769613        0.8441909999        7.8290623566
 O        -4.8076179682        2.3696099497        8.0866581912
 O        -7.2627495504       -0.0548418770        6.1033097088
 C        -5.7163165402       -1.0966688361        8.1473084774
 C        -6.6105783973        0.7529581755        9.6835415947
 H        -2.3199795439        2.0691534163       -9.1645650219
 H        -3.7671808962        2.8033685903       -8.2250498679
 H        -2.2672059028        2.9770400559       -7.5962207049
 H        -3.8102727209        1.8465850983       -5.1450716715
 H        -3.8802010807        0.2647336081       -4.2095864934
 H        -4.2713085668       -1.2518611411       -6.6410022012
 H        -2.8212820888       -2.0229277544       -5.8153940169
 H        -3.0051791021       -2.0480486774       -7.5277864949
 H        -1.2707733660       -1.2331812419       -8.2559893162
 H        -1.0900280599        0.3973223353       -8.3678954168
 H        -0.1331477715       -0.2189805860       -7.2126272810
 H        -1.5577135858        1.7646481095       -3.3220653636
 H        -2.9340835354        2.7686941079       -3.1054370355
 H        -1.9070345418       -1.1552509703        1.6691016067
 H        -3.4130329046       -0.9498832752        0.6734326212
 H        -0.9600103112        2.3339420654        0.3918797444
 H        -1.7281734451        3.3187740538       -0.8735944780
 H        -0.7839833694        2.0991507009       -1.4391694994
 H        -4.5139976763        0.7546125564        0.1188709421
 H        -3.4442355471        1.2679560443        1.3986148518
 H        -3.9914755521        2.4751448570        0.2877911039
 H        -2.6168561038       -2.8067068685       -0.7375308098
 H        -2.9388594615       -3.4427331606        0.8124126178
 H         2.6748482380       -4.8908935116       -0.5107337278
 H         1.6509296170       -5.7526136927       -1.7139479900
 H         0.6019822124       -6.2087001164        0.1346628491
 H        -0.6895586683       -5.8094051727        0.9654937661
 H         1.0686186489       -5.2345244754        1.2273293262
 H        -1.6266041654       -4.1125514923       -2.0973874659
 H        -0.3907096048       -5.5158086666       -2.3849775436
 H        -1.7767159531       -5.7327442396       -1.2581225796
 H         3.2977470858       -3.0731337066       -2.4179146976
 H         3.9608866574       -4.6834995064       -2.5725295997
 H         3.2570107625       -1.1736391180       -6.1749405906
 H         2.1690249443       -1.1688627945       -4.7416700252
 H         4.1533518417       -5.1465161634       -6.7961962287
 H         3.3922015048       -6.2350026558       -5.5794330823
 H         4.7565028214       -5.2409502505       -5.0210312859
 H         2.0927132039       -3.0570196265       -6.9696959804
 H         1.4588964166       -4.6398970412       -6.7628839975
 H         0.8498728057       -3.2836144963       -5.7825508019
 H         3.8746591894        0.6508445498       -5.0283752976
 H         5.0886783936       -0.5455078612       -4.3687122005
 H         6.5458449817        1.9666682289       -0.1648926019
 H         5.3857436381        3.2452287739       -0.6630505067
 H         5.9179028595        2.6416149707       -2.7839365682
 H         5.5209958386        1.8047287827       -4.0288754023
 H         6.5048797444        1.0339645806       -2.9098554354
 H         3.9223814740        3.3278777103       -2.6947820722
 H         2.7612614856        2.3018532164       -3.6051646460
 H         2.4964037970        2.5991752482       -2.0240035328
 H         5.1841729238        1.6768728450        1.9875644017
 H         6.2622135274        2.8971798386        1.9899320883
 H         1.8331600991        0.0909465157        2.5937064193
 H         3.0608937351        0.9958907063        3.5052348825
 H         3.6452171125        2.7698614718        4.1266807002
 H         2.4967327244        4.0247098365        4.5197334012
 H         3.9773124601        4.4363907923        3.6369323562
 H         1.7824023306        4.6141692034        0.8216507482
 H         0.9258220388        4.7364523127        2.4793494677
 H         2.3991228013        5.6335510003        2.0766622426
 H         1.5405029464        1.6497035942        5.0298087077
 H         0.9563889893       -0.0432322108        4.6746779480
 H        -3.8630783912        2.9579656378        5.8038309034
 H        -4.9330170739        2.2713398299        4.5559736384
 H        -1.5667628169        0.1684069263        5.9573351840
 H        -1.9017363504        1.6439977994        6.8729813381
 H        -0.3498838134        1.1734464715        6.5269303348
 H        -1.8061168825        4.1380567025        4.3915646945
 H        -1.2210647997        3.7118518606        5.9549504925
 H        -0.1930739259        3.8672122978        4.7160231479
 H        -4.6797903752        0.0418111821        5.7840318089
 H        -3.3112029958        0.6755712921        6.6671750311
 H        -9.0048713067        1.8038457695        7.5082059650
 H        -9.4765504122        0.1810029779        7.3477593093
 H        -8.9587646377        0.8361106255        8.8565148052
 H        -5.4953614463       -1.5438388193        7.1734925240
 H        -6.3710217734       -1.7989873649        8.6248225036
 H        -4.8438185521       -1.2554629110        8.7653631023
 H        -7.0885123948        1.7668318469        9.7266204204
 H        -7.0576441390       -0.1525793812       10.0651802140
 H        -5.7960377447        0.9520495903       10.3666102588
 Na        1.7769762880       -0.2390659056       -0.4428232555
