155

 C        -1.9185464294        0.3501220754       -8.3216528247
 C        -2.9773147927        0.6991730143       -7.2077248823
 C        -3.9700404443       -0.3373448797       -6.6377784455
 C        -3.5283941317       -0.6730168710       -5.1579670657
 C        -3.5998538979        0.3623949498       -4.0767095212
 C        -5.3769484698        0.4299251191       -6.5231309755
 C        -4.1794076631       -1.6515366705       -7.3512940829
 O        -3.0116825033        1.8222684049       -6.5715460428
 O        -3.1899067886       -1.8296249276       -4.8850038424
 C        -2.6819375527        0.0475260701       -2.9449525225
 C        -3.2610517653        0.6899972144       -1.6991896830
 C        -2.3474870988        1.8816367614       -0.9204531820
 C        -0.9834876442        1.2230575510       -0.3212507651
 C        -1.1531824999        0.0591837969        0.7558569139
 O        -4.2234313895        0.2131739099       -1.1741455311
 O         0.0811500425        1.5275169870       -0.8334235750
 C        -1.9745482973        2.9571191060       -1.9754915439
 C        -3.1951381589        2.4553327885        0.2020514427
 C        -1.3530337434       -1.2118571257       -0.0976019500
 C        -0.7286020092       -2.4340309080        0.5820290398
 C        -0.1787593492       -3.5449600506       -0.4092008681
 C         0.3406866059       -2.6276357262       -1.6011308650
 C        -0.1620877622       -2.7939573225       -3.0454640143
 C         1.0214706430       -4.3109998079        0.0093997211
 C        -1.3827623443       -4.5493315894       -0.5732270875
 O        -0.4979262088       -2.5727699636        1.7544737113
 O         1.0800564650       -1.7122812174       -1.4013644300
 C         0.6512219638       -4.0780970954       -3.6768545238
 C         0.0618494511       -4.3740034629       -5.0540540534
 C         0.9010714811       -4.0048014290       -6.3534238030
 C         1.9276343819       -2.8677981324       -5.9621393323
 C         1.6888271836       -1.3542602900       -5.9911102513
 O        -1.0573460164       -4.8244965817       -5.2049902341
 O         3.1019908565       -3.1489587733       -5.8510293826
 C         1.6561418773       -5.2047526296       -6.8201363767
 C        -0.0562570317       -3.4701895009       -7.4446258505
 C         2.8748786482       -0.4507118902       -5.9537030278
 C         3.0499951340        0.1670113766       -4.5432322156
 C         4.3454338638        1.1663178831       -4.2972330587
 C         4.5276529574        0.9116443148       -2.7118729637
 C         4.8848075691        2.1347657869       -1.7657633836
 C         5.5857401853        0.5722199470       -5.1145408540
 C         3.8940426831        2.5867863559       -4.7813679643
 O         2.2671718709       -0.0902966881       -3.6348643664
 O         4.4643223031       -0.2143657881       -2.2333160507
 C         5.3199489025        1.8558075424       -0.3300955028
 C         4.0498957678        1.9387028653        0.5474213897
 C         3.9414980518        1.2418015935        1.9473275193
 C         2.4253215359        0.7076191360        2.0446861227
 C         1.8863079998        0.1484354933        3.3732800173
 O         3.1027392592        2.6713899434        0.1900659447
 O         1.8961372626        0.3245505007        1.0862312968
 C         4.7423922342       -0.0249190704        1.9773751845
 C         4.4234371433        2.0989345132        3.1095171462
 C         1.6884796753        0.8627346399        4.7063745203
 C         0.6037207027        1.8734957782        4.6072251015
 C        -0.0413837322        2.7068435110        5.9317691355
 C        -0.8302414922        1.7163144607        6.7611123766
 C        -2.2232082283        1.9943910964        7.5434338675
 C         1.2362505556        3.3267159642        6.6286069751
 C        -1.0422229400        3.8199946614        5.2710844668
 O        -0.0439372264        1.9103117275        3.5596880362
 O        -0.4199088742        0.5766745220        6.6230486954
 C        -3.2331142671        0.8413220797        7.9012064420
 C        -3.6886757804        1.1071047397        9.3159404379
 C        -5.0364047045        0.6668941385        9.9168728179
 C        -6.0627999663        1.8444095256        9.3326212255
 C        -5.5800805632        3.3113735779        9.2894724269
 O        -3.0857037764        1.9441416476        9.9996264190
 O        -7.2350089627        1.6366800459        9.1420679999
 C        -5.6379068777       -0.6487787959        9.4474062768
 C        -4.9082652250        0.7637843286       11.4822232995
 H        -1.0495314635        1.0134732591       -8.3412061089
 H        -1.6939047999       -0.6965831633       -7.8955937085
 H        -2.1723438503        0.3771973318       -9.3457590276
 H        -3.5557018187        1.4266102824       -4.4102972701
 H        -4.6527535884        0.2656216524       -3.8191522694
 H        -5.5434017294        0.7354497836       -5.5355232705
 H        -6.3011770935       -0.2108028259       -6.5875155090
 H        -5.5071792190        1.2374972039       -7.2649180517
 H        -4.1417497610       -2.5244612566       -6.6563483984
 H        -5.2431802688       -1.6509158682       -7.7544820209
 H        -3.5055443601       -1.9049579726       -8.2013184065
 H        -2.5696727979       -1.0839668097       -2.9807197050
 H        -1.6114606912        0.3829830775       -3.0756669462
 H        -0.2575745377       -0.0788055006        1.4127685753
 H        -2.1404961187        0.1963430513        1.3917293088
 H        -1.1404524903        3.5328355308       -1.5299813456
 H        -2.7247668342        3.7509519046       -2.1297412078
 H        -1.9023937569        2.4267158117       -2.8675941553
 H        -3.6283559494        1.6081950952        0.7947766673
 H        -2.7642722848        3.2024745555        0.8211527626
 H        -3.9626263479        3.0211153279       -0.3013108523
 H        -0.9198367288       -1.0954006189       -1.1373691877
 H        -2.3870075841       -1.4208580623       -0.2724044027
 H        -1.1892679317       -3.1739505828       -3.0738177961
 H         0.1233216337       -1.9481843451       -3.6418655886
 H         1.0407400163       -5.2241853165       -0.5759933184
 H         0.9098306748       -4.6773177346        0.9530724450
 H         1.9222646099       -3.7413570462        0.0337593254
 H        -2.2669741556       -3.9182491474       -0.7023222472
 H        -1.2735788321       -5.1950243423       -1.3455254147
 H        -1.5250405176       -5.2177080623        0.2619769604
 H         1.7785690151       -3.7716111372       -3.5094797365
 H         0.3363190529       -4.9090966168       -3.0865722892
 H         1.3566610996       -1.3511884703       -7.0500076723
 H         0.9601898996       -0.9675856750       -5.1949848369
 H         2.0389658060       -5.0199916437       -7.8603664233
 H         0.8713652802       -5.9788030995       -6.9546535409
 H         2.5170856320       -5.4535744460       -6.1522106313
 H         0.4393693950       -3.2724323185       -8.3787423478
 H        -0.9515107509       -4.0730997622       -7.5423563262
 H        -0.4520450423       -2.4530976878       -7.1035547909
 H         2.7081433420        0.3071583262       -6.6492751509
 H         3.8328993187       -0.9479784940       -6.0887812467
 H         5.6314591170        2.6574119165       -2.4302112868
 H         4.1808147732        2.9321557837       -1.6987807546
 H         6.2367178753        1.4487364342       -5.1130403396
 H         5.5117402549        0.2592573835       -6.1737389921
 H         5.8577472813       -0.1826636042       -4.3988472866
 H         4.6933418943        3.3357581118       -4.8199613184
 H         3.4464680623        2.5838586239       -5.7587233939
 H         3.1082278423        3.0532463485       -4.1124180327
 H         5.7028666034        0.8413151593       -0.0811345703
 H         5.9770542925        2.5728495846        0.0900372808
 H         0.9326405999       -0.4344868194        3.2730588366
 H         2.6776736984       -0.6478270876        3.6719174402
 H         5.7390951361        0.0632468976        1.6786544835
 H         4.4827856645       -0.9585937156        1.5307073232
 H         4.8232272995       -0.3069136889        2.9901114460
 H         3.8534416844        3.1469383850        3.1717512240
 H         4.1805470078        1.6358404325        4.0780624597
 H         5.4903620412        2.2632948735        2.9722766163
 H         2.5555459782        1.2710204156        5.0932229021
 H         1.4823663588        0.1020661809        5.4222804036
 H        -2.0008174579        2.3724659613        8.4959146318
 H        -2.7546849135        2.6609533348        6.8614982166
 H         2.1611319332        2.6177637118        6.4912110398
 H         1.1497984532        3.4267488165        7.7462311350
 H         1.3407212054        4.3750139648        6.2464352857
 H        -1.4998661871        4.2628050327        6.0775464784
 H        -0.4529004946        4.4358564147        4.5982602459
 H        -1.7711144250        3.2874907091        4.7310148191
 H        -4.1241278113        0.8538545234        7.2472545921
 H        -2.6697437556       -0.0719250890        7.5978459902
 H        -4.5834283491        3.4326306400        9.8023670737
 H        -5.5818197022        3.6265496279        8.2421261824
 H        -6.3452378210        3.9032541898        9.8518524167
 H        -5.0535208030       -1.3356954889       10.0503253614
 H        -5.3405069825       -0.8617894156        8.3847652182
 H        -6.6980085928       -0.6043288174        9.3650877550
 H        -5.4790332788       -0.1118852841       11.9320762968
 H        -3.8987256639        0.8749789029       11.8681558568
 H        -5.3119610089        1.7067384393       11.9112834217
 Na        2.0383929499        0.4884666518       -1.0909073694
