155

 C        -2.1286828769        0.3709748779       -8.3315126846
 C        -3.1138712577        0.8724753721       -7.2082470089
 C        -4.2516422779       -0.1465752031       -6.6057383668
 C        -3.7868459309       -0.6111317886       -5.1264819543
 C        -3.5370959458        0.4220838819       -4.1583378750
 C        -5.6149193359        0.6016451023       -6.6084957931
 C        -4.4044290288       -1.4469443362       -7.5375937634
 O        -3.0024679085        1.8757475189       -6.6244727142
 O        -3.5384188099       -1.7802180773       -4.7679044738
 C        -2.8176255588       -0.0408404901       -2.8845666740
 C        -3.3515142478        0.8075378952       -1.6069946747
 C        -2.4099732396        1.9605329300       -1.0228315032
 C        -1.0699928264        1.4066187403       -0.5283124852
 C        -1.0851819662        0.3116318297        0.5846292269
 O        -4.3380822658        0.5419024178       -0.9813708745
 O        -0.0931741736        1.8664299445       -1.0755353789
 C        -2.1139629305        2.8678676742       -2.2718440983
 C        -3.3044603701        2.6956090617        0.0555710310
 C        -1.3751642832       -1.1565146488        0.0997465343
 C        -0.4069367726       -2.3861826133        0.6142988143
 C        -0.0615241585       -3.4024514317       -0.4356205938
 C         0.4680377663       -2.6874151423       -1.6661621021
 C        -0.0473308223       -2.8860243595       -3.0213906760
 C         1.1702501577       -4.3086789278        0.0705886919
 C        -1.2728505475       -4.3242042787       -0.6395746556
 O        -0.1513676213       -2.5501880728        1.7758805874
 O         1.4578327901       -1.9256776170       -1.5859817281
 C         0.5671530365       -4.1655218504       -3.6610570760
 C        -0.0849527604       -4.4941947449       -4.9979914339
 C         0.6656573763       -3.9797669900       -6.3358320285
 C         1.9122047416       -2.8985605646       -6.1475860871
 C         1.6731527456       -1.4247464913       -6.1217623390
 O        -1.1155327753       -5.0876270330       -5.1004929759
 O         3.0302919055       -3.2749987149       -6.0085733080
 C         1.2131895186       -5.3069719796       -6.8573426827
 C        -0.4769585645       -3.4656568111       -7.1979637464
 C         3.0303865667       -0.6646266551       -5.8537383237
 C         3.0086094145        0.0182095768       -4.4340916841
 C         4.1967618427        1.0199181849       -4.1299836740
 C         4.5208394560        0.9632423359       -2.5630484339
 C         5.1303758039        2.2463270976       -1.9058576372
 C         5.7541819968        0.8937974092       -4.8330176594
 C         3.6340227074        2.3887863280       -4.4876686138
 O         2.1806579169       -0.1153061568       -3.5773101530
 O         4.2899490179        0.0311134684       -1.7973153783
 C         5.3498509881        1.8886211388       -0.4747539257
 C         3.9719362584        1.7367970059        0.3956595948
 C         3.9911564145        0.9916160740        1.7794355905
 C         2.4808096446        0.5134967790        2.2565232470
 C         2.0365628382       -0.1726851614        3.5318523081
 O         3.0386445904        2.3534438036       -0.0035364336
 O         1.6590272694        0.3689983853        1.3082242679
 C         4.7745349049       -0.4362338944        1.7414367777
 C         4.8016281486        2.0570243319        2.7253790405
 C         1.7369229429        0.9156735273        4.6827512217
 C         0.4483192575        1.7393602643        4.4325947035
 C        -0.1087394630        2.3905993537        5.7583344134
 C        -0.7607702429        1.4626525633        6.8593709906
 C        -1.9468114210        2.1591737461        7.4865289535
 C         1.0292627234        3.1670193270        6.3619570174
 C        -0.9873770159        3.5790239840        5.1902856227
 O        -0.0604137262        1.8022832737        3.3305555166
 O        -0.2955969466        0.3989488134        7.2057080236
 C        -2.9005756756        1.0102031411        8.0596191163
 C        -3.4062737746        1.3161009660        9.5087880013
 C        -4.8524619462        0.8825852223        9.9007309690
 C        -5.9156313292        1.9505357408        9.3791535180
 C        -5.4762750774        3.3757585856        9.4954161790
 O        -2.6367024372        1.8944334352       10.2320218448
 O        -7.0662906805        1.6045308398        9.2356137364
 C        -5.2301821781       -0.5617508489        9.3429322495
 C        -5.0338830428        0.8870970820       11.4816113178
 H        -1.0649302183        0.4623418693       -7.9938703368
 H        -2.2818320431       -0.5872426904       -8.8176821324
 H        -2.1303193293        1.2261273870       -9.0189630285
 H        -2.9522569767        1.1846786999       -4.6352196088
 H        -4.5105078690        1.0000951085       -4.1391393277
 H        -5.6934814304        1.5865756889       -6.0016831964
 H        -6.4509664386        0.0614966731       -6.1569513741
 H        -5.8376217710        0.6701987586       -7.7051503398
 H        -4.5855782721       -2.3842223173       -7.0608781184
 H        -5.1354328268       -1.3307886404       -8.2350003423
 H        -3.5157045002       -1.5389351540       -8.1168907895
 H        -3.1647782020       -1.0451246027       -2.7098875258
 H        -1.7711730206       -0.2253377045       -3.0426338935
 H        -0.2231271644        0.3371170834        1.1822909228
 H        -1.7924172263        0.6484195168        1.2923942172
 H        -2.1624830138        3.8549627541       -1.9533576419
 H        -2.9189442487        2.6842521539       -2.9476490079
 H        -1.2765452541        2.4954677332       -2.8827572084
 H        -3.0950116853        2.2889246086        1.0117707633
 H        -3.0813670353        3.7735179587        0.0820216540
 H        -4.3973817599        2.7057022463       -0.1190850521
 H        -1.2215134131       -1.1143562252       -0.9482114124
 H        -2.4218522359       -1.5654175977        0.3156952135
 H        -1.1035612930       -3.0433727273       -3.0139900484
 H         0.3519940495       -2.0429867181       -3.6759250612
 H         1.0386319732       -5.3207869830       -0.1480480017
 H         1.3922347642       -4.3530404849        1.1988393503
 H         2.0811982433       -3.7827456877       -0.2863023812
 H        -2.1383914900       -3.7918698505       -1.0974180570
 H        -1.0517073776       -5.2509800663       -1.3021443401
 H        -1.4625439131       -4.8974618423        0.2892761246
 H         1.5989749266       -3.9230904159       -3.7097564334
 H         0.2559586636       -4.9735347215       -2.9659283686
 H         1.3318108467       -1.2718430701       -7.1223609482
 H         0.9399263632       -1.3532433641       -5.3404535078
 H         1.4781261206       -5.1972207017       -7.8698168893
 H         0.5631707433       -6.1361668881       -6.6270692789
 H         2.1486821412       -5.3580148392       -6.3184543439
 H        -0.0846194132       -3.1705069252       -8.2114800858
 H        -1.3213373027       -4.1862338482       -7.2380920726
 H        -0.8986573013       -2.5532119594       -6.8097753261
 H         2.9499834426        0.2896278546       -6.4753103025
 H         3.9604979387       -1.1473068973       -6.0494613656
 H         6.0332255246        2.3694528257       -2.4199505242
 H         4.6920956440        3.2980415242       -2.1059472355
 H         6.1855134591        1.9027199912       -4.7875211516
 H         5.4955567391        0.7460978790       -5.8118050582
 H         6.3412688712        0.0966238848       -4.2854730983
 H         4.3387016112        3.2397262317       -4.3509900198
 H         3.0460471109        2.5122580396       -5.3797176317
 H         2.9071115907        2.5453153045       -3.7657825725
 H         5.8883085794        0.9456112204       -0.3910717118
 H         6.0701651056        2.5313182785        0.2223041229
 H         1.1706638259       -0.7884198997        3.4269314047
 H         2.7650264772       -0.7373906907        4.0042335144
 H         5.3381875954       -0.6992004354        0.8196721056
 H         4.0698199769       -1.2631955684        1.5432054599
 H         5.4108748244       -1.0091388823        2.5896577373
 H         4.3887813816        3.0410299157        2.6001153804
 H         4.5744328416        1.8065298858        3.7614251754
 H         5.8646204733        2.1456997468        2.4257726269
 H         2.7216036495        1.3789677656        5.0218249035
 H         1.4780898707        0.3025666904        5.6053168320
 H        -1.5573486959        2.7426340639        8.3351020640
 H        -2.5068195549        2.6475187714        6.7362713746
 H         1.4114310345        2.6021078460        7.1272211301
 H         0.6981826207        4.0964024037        6.7739776087
 H         1.8382882759        3.4638667489        5.6798484842
 H        -0.9743295328        4.3168396436        6.0119588432
 H        -0.4375269753        3.9317069993        4.3345320043
 H        -1.9300549107        3.2200771736        4.7775709140
 H        -3.6224151239        0.8493684155        7.2495333929
 H        -2.2780243606        0.0819578845        8.0675169346
 H        -4.6631817814        3.5030961547       10.1943296220
 H        -5.2502054985        3.7657791952        8.4594384341
 H        -6.3986723222        3.8725544868        9.8643469118
 H        -5.7700094520       -1.1394244585       10.0736343575
 H        -4.4039002898       -1.2565183166        9.0918281895
 H        -5.6341804140       -0.2827373448        8.3370356594
 H        -5.7602355673        0.1954124412       11.7926423672
 H        -4.0410101158        0.7806425034       11.9757341468
 H        -5.2878541674        1.8801176233       11.9448569077
 Na        2.0065670090        0.5921628995       -1.1800516141
