155

 C        -2.3368930803        0.5164387397       -8.4096502391
 C        -3.2566890958        0.8606718047       -7.2172104742
 C        -4.4167548075       -0.0650956654       -6.6959974407
 C        -3.9467668753       -0.5517509127       -5.3012634219
 C        -3.5730911554        0.5009706648       -4.1841533696
 C        -5.6897574265        0.7738134419       -6.4807685745
 C        -4.5880750091       -1.3443977871       -7.4842312572
 O        -3.1034182327        1.9714504334       -6.6625258600
 O        -3.8993380361       -1.6808338241       -4.9948572742
 C        -3.1573087886       -0.0810868576       -2.7965306056
 C        -3.5699888337        0.8619334752       -1.6013343442
 C        -2.5474491891        2.0395413404       -1.2169397284
 C        -1.2990293461        1.2723171640       -0.7254736085
 C        -1.3979823728        0.4041055254        0.5257066464
 O        -4.4936150960        0.6174159792       -0.8154162433
 O        -0.1868111784        1.5756464758       -1.2008599608
 C        -2.4257848550        3.0424780287       -2.4235927913
 C        -3.0589945306        3.0063013180       -0.0943998740
 C        -1.3999548667       -1.0863902755        0.1385083070
 C        -0.2479331421       -1.9446366423        0.6682792891
 C         0.1619256297       -3.1654338899       -0.3054322400
 C         0.7256961887       -2.6478709056       -1.6158304135
 C         0.1932934143       -2.8489897498       -3.0194133739
 C         1.1744569319       -4.1681426845        0.3355202699
 C        -1.1421648578       -4.0032140674       -0.5898701783
 O         0.0759981255       -1.9569518925        1.8428669904
 O         1.6795276199       -1.9133674696       -1.5612310665
 C         0.6876715913       -4.2820074316       -3.6914853967
 C        -0.0449634717       -4.5798346353       -5.0413257507
 C         0.4753580794       -3.9617752700       -6.3866064154
 C         1.6894108544       -3.1425656102       -6.2591908735
 C         1.7860735099       -1.5607155833       -6.1689282611
 O        -1.0640104778       -5.2564176659       -4.9819668910
 O         2.7807579338       -3.6312435550       -6.0243821785
 C         0.9507102075       -5.2973595651       -7.2493835454
 C        -0.6195052140       -3.2210308244       -7.2413582489
 C         3.0672588048       -0.8612648319       -5.6814662241
 C         2.9191596243       -0.0463632668       -4.3298906103
 C         4.0049498552        1.0174161018       -3.9311578551
 C         4.4436245147        1.0412540972       -2.2780470438
 C         5.4480438036        2.1909560177       -1.7149477165
 C         5.3523983352        0.7954457229       -4.7395688733
 C         3.3451410122        2.4670137637       -4.2116070431
 O         1.8964800583       -0.1669974815       -3.6910530293
 O         4.1141586754        0.0763530619       -1.6476183390
 C         5.3976742722        2.1208654657       -0.1799604201
 C         4.1301046027        1.6228809606        0.3403958482
 C         4.1866924269        0.5836355625        1.5921074550
 C         2.7062091853        0.2810035900        2.0279034896
 C         2.6937407926       -0.0891322197        3.5282291447
 O         3.0674872744        2.0171948218       -0.2095716016
 O         1.7304376762        0.3065222494        1.3208470302
 C         5.0553618552       -0.7418793610        1.4908555685
 C         4.8087154590        1.6348960068        2.7931788472
 C         1.8874531806        0.7396837907        4.6463517621
 C         0.5442697986        1.5874118879        4.3917254601
 C        -0.0928800322        2.4114069175        5.5820149542
 C        -0.7040007466        1.5271013798        6.6986509085
 C        -1.7859546021        2.1415690195        7.5523817237
 C         1.0539276784        3.0627748170        6.3555410083
 C        -1.1316647463        3.3212737103        5.0052469607
 O        -0.0995937484        1.4682113933        3.3758429145
 O        -0.0112881025        0.6116691649        7.0594235299
 C        -2.6332441399        1.0627330500        8.2698712209
 C        -3.1991791946        1.4247500443        9.6813395304
 C        -4.6874216227        1.0240378754       10.0126732416
 C        -5.7505094259        2.0135983250        9.5234335179
 C        -5.5520370247        3.6003175288        9.6145686292
 O        -2.4548738547        1.8804167745       10.5728303538
 O        -6.7999003050        1.6050591496        9.0653486785
 C        -4.8811591646       -0.3594186281        9.3959417278
 C        -4.8384426528        0.8594665795       11.6211041247
 H        -2.0054279277       -0.5146869262       -8.3597488835
 H        -2.9311310868        0.5823109053       -9.3047281543
 H        -1.4276496798        1.2214128757       -8.5383039479
 H        -2.9164605922        1.3501588612       -4.4952444187
 H        -4.4738449155        1.0830669168       -4.1230699658
 H        -5.2906944786        1.7559918207       -6.4046906910
 H        -6.2497668272        0.5638672688       -5.5980211778
 H        -6.3383717911        0.7478085166       -7.2724850059
 H        -5.6607420353       -1.5217457279       -7.5824408554
 H        -4.1101035073       -1.3268492901       -8.5371741103
 H        -4.1540353707       -2.1824150732       -6.9632091706
 H        -3.4137062204       -1.1357942769       -2.6731972282
 H        -2.0793454514       -0.0977604173       -2.7125222737
 H        -0.5615792614        0.7364949819        1.2980896639
 H        -2.2846805445        0.6716999453        1.1882041013
 H        -1.8098793625        3.9221834126       -2.0655997474
 H        -3.4048928389        3.2857216498       -2.8927773177
 H        -1.8666050652        2.4990924868       -3.1723664404
 H        -2.8826023946        2.7404379811        0.9722709972
 H        -2.5698258427        3.9947117548       -0.1851553263
 H        -4.1034007883        3.2136778022       -0.2135126881
 H        -1.5855743775       -1.2307154904       -0.9710950943
 H        -2.1557503642       -1.5242665055        0.7041092018
 H        -0.9532687203       -2.7860686284       -3.1252087663
 H         0.6599759636       -2.0999871364       -3.5785253144
 H         1.1984568354       -5.2001761252       -0.2167489405
 H         0.8954713798       -4.5183933197        1.3048650848
 H         2.1005690571       -3.6573275639        0.5133644768
 H        -1.8814821893       -3.3778581567       -1.0196059694
 H        -0.9565875864       -4.6659011656       -1.4283597674
 H        -1.4882988030       -4.6847780992        0.1645019638
 H         1.7150761030       -4.0567578988       -3.9917931225
 H         0.4676086914       -5.0308581810       -2.9089113883
 H         1.4569854991       -1.1438622169       -7.1845623073
 H         0.9658280852       -1.5313509260       -5.3665404554
 H         1.5491630224       -4.8960196096       -8.1081705334
 H         0.0669492100       -5.9276863916       -7.3796171685
 H         1.6462199934       -5.8736611017       -6.6469884721
 H        -0.1422633983       -2.8395696173       -8.0983889283
 H        -1.3555125193       -3.9343068749       -7.5651313424
 H        -1.1315296130       -2.3691706432       -6.7547924131
 H         3.4087410878       -0.2034500898       -6.4738040457
 H         3.9297286401       -1.6122207987       -5.4555498368
 H         6.5764992182        2.2677817898       -2.0751861684
 H         5.1029975537        3.0783229188       -2.1169959400
 H         6.2064948603        1.3247022727       -4.2681662107
 H         5.0157275629        1.0529491654       -5.8509569143
 H         5.5308317084       -0.2201219349       -4.5687737292
 H         3.8161586657        3.3301128108       -3.8355107263
 H         3.3528359156        2.5227746902       -5.3434958522
 H         2.2222625621        2.5804023862       -4.1367810307
 H         6.2324539155        1.5572721569        0.3302457303
 H         5.5905960275        2.9704716347        0.3213147601
 H         2.1048602247       -1.0224424472        3.5046832581
 H         3.6463969991       -0.3259763081        4.0801526922
 H         6.0611542986       -0.7524979180        1.1210029930
 H         4.6527392629       -1.5235521676        0.8366614330
 H         5.1643089680       -1.2322342701        2.3614071877
 H         4.1830763346        2.5175328721        2.7934282904
 H         4.8972497026        1.2995311905        3.8355409025
 H         5.7462137179        2.0939148211        2.4862110161
 H         2.6592046456        1.3446399531        5.1201567650
 H         1.6064477760        0.0728276595        5.4759161052
 H        -1.2454683652        2.5643927798        8.4167111511
 H        -2.5370872186        2.8064630215        7.0323944026
 H         1.7078047880        2.3332723703        6.9146169824
 H         0.8108371493        3.9436330645        6.9902403849
 H         1.7306215716        3.4924990072        5.6233392710
 H        -1.5776257852        3.9724498442        5.7722495931
 H        -0.5608598099        3.9489179107        4.2826943957
 H        -1.6972534738        2.6292569627        4.3438068133
 H        -3.3217642238        0.8226134678        7.4507866712
 H        -2.0074459793        0.2460510684        8.5586993796
 H        -5.2321557044        3.6886520871       10.6216601048
 H        -4.7481812807        3.8971260125        9.0345764920
 H        -6.4141008423        4.1563317693        9.4332755175
 H        -5.9498838999       -0.6383433205        9.1748622408
 H        -4.5847287103       -1.1056304598       10.0858962280
 H        -4.3380009890       -0.4887555877        8.5037948775
 H        -5.9139200623        0.9148399250       12.0875258524
 H        -4.3637618618       -0.0509267973       12.0071761639
 H        -4.3099290433        1.6156059773       12.1358359067
 Na        1.6881296535        0.3580786013       -1.4367889849
