155

 C         7.6862186916       -6.1875521323        7.3052563855
 C         6.2071681384       -6.1490769519        7.2100425544
 C         5.3700299369       -5.4644148533        8.3915627844
 C         5.3593940538       -4.0765367529        7.6539212606
 C         4.0515506462       -3.7782805769        6.9396522011
 C         3.9845501376       -6.1944298819        8.4653125171
 C         6.0276795053       -5.4846348974        9.7982936175
 O         5.6897949514       -6.4926565473        6.1596514196
 O         6.3384384026       -3.3851646230        7.6633152756
 C         4.0633161294       -2.4236572825        6.2195520479
 C         2.7354061716       -1.7635022222        5.8241991246
 C         2.6633606728       -0.2296348830        5.5127936926
 C         1.1878232085        0.1103340886        4.8469208876
 C         1.0297095873       -0.2368002875        3.3168576902
 O         1.6699575890       -2.3896870880        5.6894634539
 O         0.2764602768        0.6130081035        5.4739837993
 C         2.6626173514        0.4776243280        6.8686257581
 C         3.8396736577        0.2700559994        4.5942548684
 C        -0.3972008225        0.0432345939        2.8867497726
 C        -0.5529417128        0.3686022211        1.3937522825
 C        -0.6124292254        1.8845132733        0.8503809039
 C         0.6085246822        1.9425869511       -0.1284887075
 C         1.9775272037        2.3735097961        0.3692568004
 C        -1.8517847888        1.8828896436        0.0343758254
 C        -0.6717134463        2.8735658323        2.0366772715
 O        -0.6522312072       -0.5916377959        0.6686342599
 O         0.5357835036        1.5391252205       -1.2595684812
 C         3.1063353285        2.1542674075       -0.7310252504
 C         4.1172817750        1.1936911397       -0.2086384548
 C         5.3928426572        0.6406830234       -1.1348521034
 C         4.9494312669       -0.7582493507       -1.8095136782
 C         4.3344229681       -1.8345079649       -0.8610374661
 O         4.0004607077        0.6763226942        0.8701455753
 O         4.9464557494       -0.8622969721       -3.0324674938
 C         5.7132487538        1.6965608913       -2.2864778893
 C         6.6502441653        0.4764577472       -0.1993726431
 C         3.6852764856       -3.0047535351       -1.5737105863
 C         2.2478646736       -2.6888989598       -1.9589806612
 C         1.2856718406       -3.8961122193       -2.2587601459
 C         0.0797409648       -3.3371659418       -3.0189878502
 C         0.1016127677       -3.2484081110       -4.5020989994
 C         2.0379867936       -5.0054813521       -3.0831890875
 C         1.0619029750       -4.3462291079       -0.7779555277
 O         1.6961773040       -1.5776363027       -1.8650316661
 O        -0.8869967612       -2.8773871071       -2.3835470670
 C        -1.0109579682       -2.3553819472       -5.1504267645
 C        -1.2153053411       -0.9864763822       -4.6109796460
 C        -2.5946997114       -0.3240840874       -4.8404974609
 C        -3.3527568624       -0.1144129025       -3.4350602801
 C        -4.7762648154        0.2854473265       -3.4252289434
 O        -0.2607231577       -0.3872372481       -4.0653171715
 O        -2.8672047993       -0.3351212444       -2.3152255359
 C        -2.4528306060        1.0876397284       -5.3897471004
 C        -3.5657757081       -1.1514415887       -5.8211524430
 C        -5.1336161359        1.2313454983       -2.2612621371
 C        -6.6799434487        1.2969979542       -2.2253916777
 C        -7.3130146299        2.0440826345       -1.1164959243
 C        -7.2742670941        3.6219531496       -1.3530167813
 C        -7.4661639375        4.1966667963       -2.7304600523
 C        -8.8353671662        1.5943742183       -0.9684932350
 C        -6.8592167947        1.6762313084        0.3749076721
 O        -7.3129373529        0.8958480568       -3.1693085324
 O        -6.8964135639        4.3171933741       -0.4107105736
 C        -6.9659878569        5.6644316862       -2.9224012612
 C        -5.7675401450        5.8120304276       -4.0242761663
 C        -6.1148404110        6.3154081592       -5.5549324130
 C        -7.0006925861        5.1224882241       -6.0485134276
 C        -6.1660919658        3.9755797666       -6.7029460123
 O        -4.6906361846        5.4092115663       -3.6812896090
 O        -8.1867512156        5.0533057849       -5.8880867597
 C        -6.9518780030        7.6103800617       -5.4485656203
 C        -4.7806130073        6.4957994462       -6.3038711272
 H         8.0261488864       -6.7867521154        8.0753431395
 H         7.9835674735       -6.7114926303        6.3878714032
 H         8.3292809028       -5.3308837332        7.2752133936
 H         3.8725198790       -4.6802058288        6.3030591648
 H         3.2379484163       -3.8564508752        7.6903471897
 H         3.6974708807       -6.4015886813        7.4346066700
 H         3.1417809564       -5.6851162296        8.7125968238
 H         3.8531969258       -7.1058435531        9.0163234837
 H         7.1958105732       -5.2614670879        9.7131534972
 H         5.5569982415       -4.7662045145       10.4884674909
 H         5.9801626366       -6.4622312194       10.3249939722
 H         4.5146338615       -1.6436436495        6.9171224724
 H         4.8439158247       -2.4949491640        5.4306146561
 H         1.6199247231        0.5141402219        2.8771495534
 H         1.3767662958       -1.2994927441        3.0335980576
 H         2.1844753333        1.4198995836        6.7505261470
 H         3.7028948774        0.4714496293        7.1106447556
 H         1.9729567629        0.0003450685        7.5236093158
 H         4.7904725017       -0.2871363993        4.8070937698
 H         3.6328648387        0.1275723090        3.5687395932
 H         3.9642273091        1.3235825690        4.8586041212
 H        -0.9047570127        0.7278141169        3.6168494041
 H        -0.9987314728       -0.8358460995        3.1326880387
 H         1.9024911373        3.3524421224        0.7226577618
 H         2.2815410327        1.7996034602        1.3111108223
 H        -2.0590492527        1.0954236145       -0.6661875937
 H        -1.9564801944        2.8542026944       -0.5851056405
 H        -2.7630754386        1.7941851983        0.6865711470
 H        -1.1793298608        2.4924342683        2.8848664549
 H         0.3553910132        3.1968765402        2.2175026813
 H        -1.2356551290        3.7157658311        1.6244407591
 H         2.7163997211        1.7874133795       -1.6936304313
 H         3.5445053065        3.1091331989       -1.0007433482
 H         5.1706086801       -2.3124951144       -0.3567379787
 H         3.6070730529       -1.2856527500       -0.2698734492
 H         6.7866386313        1.8121937959       -2.4326818040
 H         5.2299539261        2.6321616052       -2.1735651231
 H         5.3365745442        1.3890025228       -3.2671460109
 H         7.1677041566        1.4794731309       -0.0864015108
 H         6.2235185389        0.1810592138        0.7743068198
 H         7.3751168031       -0.2658649676       -0.5220564949
 H         3.6174030387       -3.9441512667       -0.8979922803
 H         4.2501809777       -3.4029285368       -2.4558210201
 H         1.0161185388       -2.8035226525       -4.8139292872
 H         0.0278740504       -4.2502003055       -4.9718710530
 H         2.4260883713       -4.6092209476       -4.0636089616
 H         1.4318066508       -5.7874736715       -3.3646810329
 H         2.9369170308       -5.4728457491       -2.6625937931
 H         0.3084646104       -5.1528329672       -0.9165586586
 H         1.9523504852       -4.7994672548       -0.4112778543
 H         0.7546584238       -3.5806686174       -0.0485994760
 H        -0.5801444857       -2.1787725444       -6.1513514984
 H        -1.9359560821       -2.8675673331       -5.3644516360
 H        -4.9640893623        0.7620709770       -4.3523859108
 H        -5.4528833359       -0.5680797333       -3.4299679462
 H        -2.2403877840        1.7195642040       -4.4950595935
 H        -3.3754723090        1.3970514290       -5.8242407675
 H        -1.6129150408        1.1356867949       -6.1095810796
 H        -4.3973445681       -0.4490980803       -5.9701967852
 H        -3.0284604559       -1.3968544875       -6.8056759587
 H        -3.8620224703       -2.0669338432       -5.4419457821
 H        -4.5219342954        2.2047199324       -2.2336335203
 H        -4.7527749927        0.6806008413       -1.3794728834
 H        -6.8032634762        3.5634168029       -3.3007279248
 H        -8.5498929581        4.1169494912       -3.0432839261
 H        -9.0088628471        0.5978260821       -0.4222750640
 H        -9.3675490242        1.5386268069       -1.8851004117
 H        -9.3826552987        2.3295274177       -0.4369632829
 H        -5.7753803489        1.9715232342        0.6773345425
 H        -7.5744766298        2.1230316941        1.0946587575
 H        -6.9869743883        0.6015606399        0.6237123754
 H        -7.8144656405        6.2726256130       -3.2918812390
 H        -6.6115268966        6.0775660783       -1.9265040354
 H        -5.1727569290        3.7062522427       -6.2972829274
 H        -6.7956676953        3.0619181720       -6.7057100236
 H        -6.0843587353        4.1479400747       -7.7911373913
 H        -7.2270024043        7.9481852902       -6.5145707789
 H        -6.4947323659        8.4279564074       -4.9825683386
 H        -7.8734964676        7.4765635432       -4.8735811728
 H        -4.8807549241        7.0530246811       -7.2247435412
 H        -4.1551225043        7.0922142898       -5.7569253038
 H        -4.4237772825        5.4844957731       -6.4841099556
 Na       -0.5524817297       -0.5352372786       -1.6287841796
