155

 C         7.7060243548       -6.3113623529        7.1371487446
 C         6.2410265777       -6.1292170146        7.1038459096
 C         5.4082255677       -5.3770016739        8.2557996549
 C         5.2452234268       -3.9444826422        7.6786727172
 C         3.8732063277       -3.4934900247        7.0721257527
 C         4.0716166923       -6.1716608303        8.4633972860
 C         6.2802894078       -5.2626334026        9.5738184448
 O         5.7283520870       -6.5574015528        6.1089680869
 O         6.1829260985       -3.1470096906        7.5713109299
 C         4.0877632625       -2.3857458748        6.0627177701
 C         2.7183347844       -1.8130301700        5.6651688599
 C         2.7072790332       -0.2650353955        5.5166690105
 C         1.3083898103        0.2557661004        4.8880068922
 C         1.0823672630        0.0599216230        3.3278625202
 O         1.7636597392       -2.5253700212        5.6495666516
 O         0.5135984128        0.8965405568        5.5766308413
 C         2.8466436976        0.3461064828        6.9334190125
 C         3.8636648692        0.2593762209        4.5789403916
 C        -0.4264876831       -0.0988605365        2.9233275542
 C        -0.7521600729        0.2355478294        1.4801916186
 C        -0.6418373354        1.7249655858        0.9430485906
 C         0.5535298957        1.6981663002       -0.1044510597
 C         1.9257178139        2.3242329263        0.2365186905
 C        -1.9182721262        2.1255296633        0.1840246371
 C        -0.3451976263        2.8003237989        1.9580827311
 O        -1.0184883018       -0.7266008321        0.7520355249
 O         0.3533594234        1.2464329345       -1.2500690500
 C         3.1248408811        2.1636282419       -0.7371167258
 C         4.2020350639        1.0755503568       -0.3409990215
 C         5.2989749443        0.6177935423       -1.1979896210
 C         4.7059015676       -0.7069053529       -1.8216986570
 C         4.4371134361       -1.8351033414       -0.8133239172
 O         4.0234653998        0.3932674072        0.6839255757
 O         4.6656430835       -0.7919249100       -3.0069834778
 C         5.8063980604        1.5147916258       -2.3735796835
 C         6.5510484642        0.3291176312       -0.3305276241
 C         3.7493504160       -2.9747668565       -1.6082214744
 C         2.2944461656       -2.6469139448       -1.9668769247
 C         1.3029438997       -3.9761448737       -2.2416784484
 C         0.1060500983       -3.3366870175       -2.9533306656
 C         0.1433889253       -3.0528875051       -4.3956078499
 C         1.9115039031       -5.0840849272       -3.1238158393
 C         0.7131133664       -4.6769124680       -0.9522844685
 O         1.9439030305       -1.5053784674       -2.0658645238
 O        -0.8435526570       -2.9149602751       -2.3538297556
 C        -1.1064793502       -2.4717303225       -5.0741784353
 C        -1.2564711458       -1.0389010729       -4.6342120166
 C        -2.5786761394       -0.2998033850       -4.7684926094
 C        -3.2823611654       -0.2112358335       -3.3038118015
 C        -4.7489869268        0.3828813612       -3.3916611830
 O        -0.2909520349       -0.4403298525       -4.1590466272
 O        -2.7897000995       -0.5665273268       -2.2463742289
 C        -2.2618520664        1.2323902182       -5.2767767860
 C        -3.5640521737       -1.0375789580       -5.7206983332
 C        -5.2514153859        1.0932311542       -2.1564237297
 C        -6.8214675233        1.3589649447       -2.1476195631
 C        -7.4066065155        2.1709957464       -0.8963250882
 C        -7.2885929395        3.7651164637       -1.2264454903
 C        -7.1949679877        4.2174301560       -2.7124989029
 C        -8.9132233751        1.7850811859       -0.7082949996
 C        -6.5228332936        1.8909991693        0.3251366691
 O        -7.5962261945        0.9754545851       -3.0296279175
 O        -6.9408608902        4.4562689408       -0.3464872163
 C        -6.6590256363        5.6623758591       -2.8888793369
 C        -5.6495371035        5.7718758614       -4.0770405874
 C        -6.1247211898        6.3663774505       -5.5147773078
 C        -7.0160035905        5.1352511295       -5.9508724016
 C        -6.4689607055        3.8446166140       -6.4117849498
 O        -4.5139851254        5.3617890444       -4.0179445320
 O        -8.2078970069        5.1750257751       -5.7988435853
 C        -7.0484173263        7.7231630693       -5.5935270431
 C        -4.8620644401        6.6138693359       -6.2833080559
 H         8.0506025507       -7.2994289384        7.6019433994
 H         8.2798651400       -6.1270824751        6.2360264169
 H         8.2372746705       -5.5568568251        7.7338688343
 H         3.1730939668       -4.2449490268        6.7749631967
 H         3.3949204515       -3.0024994469        7.9066718155
 H         3.5465028798       -6.5735193284        7.5750595178
 H         3.1891684429       -5.6602069162        8.9900094222
 H         4.2032504055       -7.0330268239        9.1170713644
 H         7.1386747072       -4.6870581536        9.3194997686
 H         5.7023627886       -4.7607559710       10.3648338320
 H         6.6169502974       -6.1916097009       10.0027666202
 H         4.8311508327       -1.6745205763        6.3507057334
 H         4.4481860568       -2.7368939453        5.0700299079
 H         1.4934166026        1.0238593306        2.8614182042
 H         1.6500991936       -0.7511422981        3.0293710797
 H         2.9544762218        1.4253754602        6.8631206754
 H         3.6817914106       -0.1801477706        7.3971624223
 H         1.8335336100        0.3514726566        7.2735380939
 H         4.7578956276        0.2099404864        5.1833754994
 H         4.0599571357       -0.4439643812        3.7135092220
 H         3.6678212872        1.3150614463        4.3186411218
 H        -1.0191611290        0.6092575616        3.4724698937
 H        -0.8320186633       -1.0487737397        3.2553029960
 H         1.7624528178        3.4638076392        0.4750295530
 H         2.0913663401        1.9348995360        1.2269558690
 H        -2.1802966874        1.4586905878       -0.6521266354
 H        -1.8221969278        3.0836178916       -0.1701236951
 H        -2.8319351175        1.9819330579        0.7343207399
 H        -1.2319135830        2.6459006899        2.6533779945
 H         0.6174004344        2.5957072669        2.4349177121
 H        -0.3218834288        3.7881757488        1.4696723995
 H         2.6099881559        1.9057716167       -1.6846484180
 H         3.5102344280        3.1903895806       -0.9360524963
 H         5.3750002083       -2.2895422982       -0.4785179205
 H         3.7859525366       -1.3576910144       -0.0632643119
 H         6.4872262629        0.9349004707       -2.9499117274
 H         6.4084598268        2.3374104587       -1.9284367846
 H         5.0870937619        2.0065451272       -3.0077237582
 H         7.0691467112        1.2130297011       -0.1006983433
 H         6.2915764279       -0.2426345789        0.5613831981
 H         7.2119749760       -0.2848792985       -0.9822329575
 H         3.8948919053       -3.9181197165       -1.2038216696
 H         4.2123489556       -3.0589908107       -2.5949684778
 H         0.9768409932       -2.2834787197       -4.4753869040
 H         0.4268766151       -3.8873173800       -5.0122254291
 H         2.2170847285       -4.8866916489       -4.1120969450
 H         1.1462332834       -5.9288156465       -3.2610168606
 H         2.7000108188       -5.6477875836       -2.6106700007
 H        -0.1948517176       -5.2064825221       -1.1545471722
 H         1.4542332631       -5.2840346366       -0.3758177834
 H         0.4729216500       -3.7834998526       -0.3545343504
 H        -0.9546861137       -2.5579308176       -6.1472603676
 H        -1.9544235243       -3.1883802017       -4.8740493752
 H        -5.0470110612        1.0459796595       -4.2117621872
 H        -5.3509387943       -0.5577475947       -3.5339161930
 H        -2.4339972615        1.9047777483       -4.4290952001
 H        -3.0582565071        1.5181926567       -6.0508124855
 H        -1.2349023050        1.2541763339       -5.6547992644
 H        -4.5321964998       -0.5412153237       -5.7106147990
 H        -3.1563068204       -1.1013824774       -6.6505079640
 H        -3.7370017663       -2.0960180981       -5.2470297664
 H        -4.8781601788        2.0874439310       -2.1413767848
 H        -4.8849271250        0.6372289136       -1.2328160887
 H        -6.4700866563        3.5671302391       -3.2345422299
 H        -8.1397679952        4.1580533169       -3.1745324175
 H        -9.0829384120        0.7695192420       -0.6235360861
 H        -9.6477993566        2.2777385125       -1.3958683261
 H        -9.2674581169        2.2584946472        0.2523813611
 H        -5.7391691688        2.5302939078        0.1804692591
 H        -6.9400522606        2.2330053064        1.2956604147
 H        -6.1112192082        0.8656093431        0.4861543266
 H        -7.4200078121        6.4493136613       -3.0456672906
 H        -6.0176062935        5.9273171898       -2.0478741485
 H        -5.4580027165        3.7626718009       -6.0266937856
 H        -7.0690431143        2.9400363145       -6.1611111409
 H        -6.3402263388        3.8631456022       -7.5095135368
 H        -7.0522573980        8.2072196661       -6.5272043013
 H        -6.7786215999        8.4444434918       -4.7624631932
 H        -8.1067262187        7.5295706660       -5.3749503184
 H        -4.9307136508        7.4496682597       -6.9936909962
 H        -3.9997648312        6.9183857022       -5.5907047399
 H        -4.6857066600        5.6630629193       -6.7551988874
 Na       -0.5318531303       -0.7999309631       -1.7270677396
