155

 C         7.8181662719       -6.2064627816        6.7609387761
 C         6.3440071920       -6.0000289366        6.8140533258
 C         5.6494145171       -5.1526308243        8.1331170414
 C         5.3110627831       -3.7043826523        7.6140305234
 C         3.8047476561       -3.4235966086        7.0989495826
 C         4.3735955263       -5.9344225268        8.4957873034
 C         6.6461005597       -5.1848438866        9.3347707393
 O         5.4408903778       -6.4213348603        6.1537342573
 O         6.2357401726       -2.9394404259        7.5124159856
 C         3.9057473032       -2.6825849846        5.8268949246
 C         2.6662260880       -1.7673291356        5.4664536282
 C         2.7915860913       -0.1806886644        5.4006086914
 C         1.4306126056        0.3280065866        4.7430437095
 C         1.1366206652       -0.0725984625        3.2918407416
 O         1.6015294831       -2.2491781032        5.1200216855
 O         0.6845861290        1.1699378994        5.2372012148
 C         2.9513877253        0.4406417062        6.8790361229
 C         4.0134148107        0.2616695045        4.5651667303
 C        -0.3628822892       -0.1025129774        3.0068778490
 C        -0.5650916623        0.1661102753        1.5624569723
 C        -0.4581663909        1.6573818429        1.0554495670
 C         0.6498295510        1.6419236923       -0.0216461964
 C         1.8557312413        2.5971986515       -0.0639607661
 C        -1.7099299381        2.0600483306        0.2573758935
 C        -0.2287228743        2.8041022023        2.1367270770
 O        -0.7047887129       -0.7702114321        0.7916611725
 O         0.5048103813        0.8126716182       -0.9300889547
 C         3.0034296942        1.9978108325       -0.9746666222
 C         4.0160784056        1.0002628749       -0.3293685932
 C         5.1531927070        0.4571686998       -1.2545642068
 C         4.6275080221       -0.8926812748       -2.0889077371
 C         4.6639968050       -2.3036239076       -1.3064737187
 O         3.9655990903        0.7522774132        0.8558832882
 O         4.0403460825       -0.7928931842       -3.1362678132
 C         5.5694006211        1.3218267064       -2.4399035965
 C         6.2574095889       -0.0312927000       -0.2878771423
 C         3.7273309284       -3.3369727729       -1.9132275807
 C         2.2586703497       -2.9644093773       -1.9373968243
 C         1.3260853298       -4.1317515901       -2.3551679494
 C        -0.0213502656       -3.5313067674       -2.9753732260
 C        -0.0183567960       -3.2414318228       -4.5035563880
 C         1.8881880330       -5.2567059288       -3.1883786974
 C         0.9935877978       -4.8026017200       -0.9402991923
 O         1.7471228898       -2.0089714503       -1.3702841051
 O        -1.0908238071       -3.5173906717       -2.3827129017
 C        -1.1738499182       -2.3790938817       -5.1624338475
 C        -1.4049125459       -0.9315386351       -4.5930724225
 C        -2.6853576681       -0.1148547545       -4.8345315957
 C        -3.4966759914       -0.1426471614       -3.4085431606
 C        -4.9282849811        0.4007179208       -3.2286155869
 O        -0.5320393812       -0.5114599149       -3.8102436080
 O        -2.8060500611       -0.2415572813       -2.3875728810
 C        -2.3671477601        1.3016254873       -5.1478840604
 C        -3.4790577200       -0.6392229346       -6.0069151717
 C        -5.4237287717        0.8185248225       -1.8047760407
 C        -6.7927061330        1.5162140036       -1.7759211162
 C        -7.2824794568        2.4782929888       -0.6530056719
 C        -6.7805910273        3.9519769586       -1.1019680347
 C        -6.4586433682        4.2172646981       -2.5181398805
 C        -8.7490233837        2.4374652957       -0.4318058364
 C        -6.5001496174        2.3079965916        0.7555367850
 O        -7.5531473633        1.1932289733       -2.6729233507
 O        -6.9931529895        4.8020235197       -0.2616921074
 C        -6.1739050222        5.6658281170       -2.8137545794
 C        -5.4344569390        5.6569158619       -4.2190936029
 C        -6.2802959565        6.3023795773       -5.3962490408
 C        -7.3246316070        5.1634577800       -5.7471564962
 C        -6.7413781197        3.9238642839       -6.2761429415
 O        -4.3171716295        5.2510433142       -4.2838107546
 O        -8.4782517383        5.3347326801       -5.8247033993
 C        -6.8468608738        7.6764513603       -5.1441186646
 C        -5.3134346589        6.5076407679       -6.6350173032
 H         8.2432399517       -6.6650763499        7.6930302672
 H         8.1110140043       -6.8745752677        5.9501515276
 H         8.3617795993       -5.3026890511        6.5323182172
 H         3.1932159463       -4.2806846720        6.8935099666
 H         3.3666825525       -2.9359576078        7.9587618468
 H         3.8245607366       -6.4235480711        7.6123880287
 H         3.6232945171       -5.3954219175        9.0927962378
 H         4.5733767341       -6.8151833245        9.0635827697
 H         7.7042131850       -4.9017109500        9.0366751750
 H         6.3255631636       -4.3569569394       10.0184157311
 H         6.5994415673       -6.1213002490        9.8264732827
 H         4.7872118477       -2.0652464464        5.6725261262
 H         3.9950572636       -3.3572337256        4.9309852990
 H         1.8155862097        0.4704021710        2.5552246957
 H         1.5178823017       -1.0341481811        3.2152688198
 H         2.9495307970        1.5273908141        6.7801569798
 H         3.9613744460        0.1752915910        7.2171533648
 H         2.0960430394        0.1017733061        7.3880585583
 H         4.8866796974       -0.2626570725        4.9601261176
 H         3.7876195006       -0.0712235649        3.5391559061
 H         4.1333413492        1.3646761620        4.5924849630
 H        -0.8003843639        0.6980517046        3.5956250504
 H        -0.7935084417       -1.0714228807        3.1835666786
 H         1.3993218777        3.6312413337       -0.4391489113
 H         2.2753504533        2.8245311595        0.9288456049
 H        -1.8912163661        1.3994504999       -0.5977507025
 H        -1.5602170544        3.0706367414       -0.1784567804
 H        -2.7785984116        2.0689706915        0.6642037127
 H        -1.1982178842        3.0703887712        2.6487555009
 H         0.6024156881        2.5582227844        2.7678787139
 H         0.1635667954        3.6195330343        1.5015083073
 H         2.4272506140        1.3641537007       -1.6891846459
 H         3.4578333337        2.8649690057       -1.4884301761
 H         5.7238450525       -2.6276936650       -1.4383155400
 H         4.4675842672       -2.0814333290       -0.2255393408
 H         5.0263217836        2.2027510731       -2.5935156098
 H         5.4722910851        0.7307248875       -3.3495042389
 H         6.5850993074        1.6495227175       -2.2920354747
 H         6.7399333444        0.8206558332        0.1436813336
 H         5.7752698924       -0.5943841453        0.5490232428
 H         6.9869348085       -0.7237842367       -0.8219225666
 H         3.7558961462       -4.2922542265       -1.4383019399
 H         3.9561587641       -3.5661735093       -3.0024238694
 H         0.8500656452       -2.7071550920       -4.9608982197
 H         0.0363006235       -4.2244056950       -4.9509053472
 H         2.0882246894       -5.1172933449       -4.1964035395
 H         1.1673173472       -6.0975293349       -3.2300474085
 H         2.7143762880       -5.7365294709       -2.6481530493
 H         0.4554636623       -5.7347095253       -1.0426974209
 H         1.9562235731       -5.0521622616       -0.4709817109
 H         0.3747674198       -4.1465162479       -0.3019720248
 H        -0.9768154892       -2.3834682389       -6.2024589334
 H        -2.0999270595       -2.9529921554       -5.0327869024
 H        -5.1255294690        1.1623884358       -3.9378229469
 H        -5.6318255628       -0.4530902944       -3.5082537206
 H        -1.4522241668        1.5742141953       -4.5748420683
 H        -3.1479572384        2.0500112597       -4.8095744576
 H        -2.1625216361        1.4437626619       -6.2243607416
 H        -4.3747669867       -0.0325438562       -6.1171206822
 H        -2.9295899589       -0.3781737529       -6.8302096361
 H        -3.8706943020       -1.6473741087       -5.8386533160
 H        -4.8185493703        1.4628755031       -1.1684602550
 H        -5.4936189074       -0.1524820604       -1.2490593950
 H        -5.6410515464        3.5847849297       -2.9035250664
 H        -7.3094414287        3.9410648178       -3.0771769325
 H        -9.0236100724        1.6395621095        0.2051574822
 H        -9.3215737992        2.4173967366       -1.3581670881
 H        -9.0898061676        3.4095651981        0.0143385998
 H        -6.0948376024        1.3217594939        0.9153276400
 H        -5.6222926711        2.9792726489        0.7788004838
 H        -7.2301853196        2.2509044168        1.6444973122
 H        -7.1219220707        6.2839754742       -2.9299887935
 H        -5.4711512055        6.0115705619       -1.9933065342
 H        -5.8492367776        3.6056556229       -5.7016024996
 H        -7.4702692874        3.0698994114       -6.2452911738
 H        -6.3062410682        4.1741676085       -7.2731820502
 H        -7.3110465187        8.1324199090       -6.0063900471
 H        -6.0584977639        8.2999745229       -4.7206235383
 H        -7.7150226882        7.7321210311       -4.4625006278
 H        -5.9462418308        6.2108097540       -7.4362933126
 H        -4.9289940450        7.5240939242       -6.7959359000
 H        -4.4721488530        5.8238284996       -6.5896900832
 Na       -0.7017351936       -1.0878529148       -1.4986588793
