155

 C        -7.8032207559        4.4803394879       -6.6109913589
 C        -7.7809968264        4.8264810579       -5.0890332989
 C        -7.8782759095        3.6941967862       -3.9595428281
 C        -6.4995573051        3.3553068828       -3.5185094153
 C        -5.7906632790        4.3502407022       -2.5048639105
 C        -8.9076503671        4.2349293601       -2.9216867595
 C        -8.4640791423        2.4620046625       -4.6376339302
 O        -7.7462688666        5.9732588444       -4.6884567016
 O        -5.8528231858        2.4500164484       -4.0029037765
 C        -4.3340336084        3.6226759671       -2.0628361167
 C        -4.1683005047        2.8173663112       -0.7906559997
 C        -2.5888601548        2.1566054119       -0.6231526963
 C        -2.4659706004        1.1351881608       -1.7991519221
 C        -3.7587209144        0.3163549287       -2.2530981978
 O        -5.0172266264        2.5827929851        0.1195397317
 O        -1.3754825519        0.5810621986       -2.0947874285
 C        -1.6283619946        3.3465047040       -0.7338098100
 C        -2.4608007693        1.3866190082        0.7944870965
 C        -3.6659422053       -1.1714302127       -2.3667060313
 C        -3.0294251913       -1.9099467024       -1.1078536097
 C        -3.0538486700       -3.4581392705       -0.9756085911
 C        -1.8782600179       -3.9703498931       -1.9238045837
 C        -2.0298453239       -5.3129602630       -2.7425215683
 C        -2.6911556277       -3.8550667877        0.4672530181
 C        -4.5229048270       -4.0391349444       -1.1742108937
 O        -2.2881968272       -1.3018958416       -0.3577442579
 O        -0.8330621839       -3.3430144655       -1.9921417473
 C        -1.0745416654       -5.2360521099       -4.0024552929
 C        -1.7241756251       -5.7385114489       -5.3277528789
 C        -1.3236310001       -5.1504656204       -6.7840084529
 C        -0.6277287210       -3.7513206560       -6.6693071357
 C        -1.4041365720       -2.5250905084       -6.5697049529
 O        -2.5178630979       -6.7211153582       -5.1525095303
 O         0.5750857585       -3.7046828070       -6.8218349153
 C        -0.2439680071       -6.1925534625       -7.2037302790
 C        -2.5587505711       -5.2704253814       -7.6452591788
 C        -0.4043080323       -1.3305265419       -6.2510402713
 C         0.3267855334       -1.4277175811       -4.8889242919
 C         1.8619006776       -1.1214444481       -4.5258064512
 C         2.4191647595       -2.0897469950       -3.4829221901
 C         3.8300386170       -1.6232825374       -2.9944500107
 C         2.5465492104       -1.2683840641       -5.9460581210
 C         1.7564200090        0.4399274322       -4.0805472371
 O        -0.3939140719       -1.5837502962       -3.9105233504
 O         1.7404167952       -3.0447107271       -3.0424692169
 C         4.2342766823       -1.8348834401       -1.4649946888
 C         3.0302968405       -1.4301504788       -0.6441782674
 C         2.8117557384       -1.9537596794        0.8768810579
 C         1.8886628681       -1.2172399745        1.8086621992
 C         2.5067813219       -0.5894073221        3.0631389148
 O         2.1312618738       -0.7482487218       -1.0615456747
 O         0.6165137326       -1.0499453757        1.5557103262
 C         2.3226053149       -3.4070800382        0.7367683184
 C         4.3096432448       -2.0731525787        1.4897367731
 C         1.4290391884        0.2284836588        3.7373931707
 C         1.9389327325        0.7809136168        5.2397595685
 C         1.5828034835        2.2432102172        5.5558888915
 C         3.0546625036        2.6033725632        6.1856348849
 C         3.3421681870        2.6731574309        7.7542993524
 C         1.3048758441        3.3155963748        4.4888690381
 C         0.4785179563        2.1796484986        6.6042706452
 O         2.2584787756        0.0111351842        6.1688256977
 O         3.8968848070        2.8238275752        5.3569772192
 C         4.8785058481        2.5507841928        8.1324638249
 C         5.2864139041        3.8165520117        8.9864495221
 C         6.5390287760        3.7249433714       10.0977285171
 C         5.7873360522        2.8412739405       11.2513413533
 C         6.1561036040        3.1053636965       12.6567222032
 O         4.7140648721        4.8540764072        8.7457857313
 O         4.9298817835        2.0628456128       10.8665895111
 C         7.7558103849        2.8950685053        9.5583448536
 C         6.9993550210        5.1229879310       10.6082586955
 H        -8.2721332250        5.3723442197       -7.0044219256
 H        -6.7589227071        4.4962684085       -7.0065308214
 H        -8.3413161123        3.5261500844       -6.8677038964
 H        -5.5921762545        5.2632900588       -3.0703975940
 H        -6.2933931867        4.7184444175       -1.6424791167
 H        -9.7252338657        4.3594542580       -3.5481543226
 H        -8.5997364275        5.3056614746       -2.6314825850
 H        -9.0375942978        3.7166947746       -1.9343612412
 H        -9.4978513249        2.6456410160       -4.8621935870
 H        -7.9452473345        2.3044010948       -5.5572740449
 H        -8.3240872948        1.5318859245       -4.0345375437
 H        -4.2295736766        2.8770890990       -2.9395283659
 H        -3.5490146034        4.3389354020       -2.0616836788
 H        -4.6828118838        0.7306698685       -1.8093665370
 H        -3.8760322910        0.5821534953       -3.3473387009
 H        -0.7508938068        3.2146214023       -0.1165937795
 H        -2.1354791811        4.2400035638       -0.3780037516
 H        -1.1619547602        3.4899880248       -1.7452911975
 H        -3.2692677977        0.6034665304        0.9225498162
 H        -1.5586315102        0.8204860093        0.8886775004
 H        -2.5522506313        2.0023585859        1.7181181271
 H        -2.9490251121       -1.3128924850       -3.1704710491
 H        -4.4793563217       -1.6583824671       -2.7487139212
 H        -1.7609900306       -6.2263890987       -2.2402889168
 H        -3.0540004961       -5.2180955672       -3.1285333224
 H        -2.3219339782       -4.8997531310        0.4372457286
 H        -3.6786414939       -3.6623879470        0.9133135707
 H        -1.7851945328       -3.3565754585        0.7645694261
 H        -4.9424889099       -3.6728279801       -2.1287613071
 H        -4.5668538408       -5.1256715618       -1.0714606332
 H        -5.0978318737       -3.6185470566       -0.3540937843
 H        -0.8765192552       -4.2279476306       -4.2023942942
 H        -0.1012733203       -5.8588688789       -3.8428233911
 H        -1.9667255410       -2.3548708314       -7.5128554513
 H        -2.1652351739       -2.6512353913       -5.9029978908
 H         0.3384822761       -5.9503413709       -8.1004579476
 H        -0.7558813643       -7.1563489184       -7.3287448532
 H         0.4886700705       -6.4088873742       -6.4438159924
 H        -2.3590887778       -5.7361074976       -8.6452730396
 H        -3.2113386026       -5.9998426294       -7.1518379601
 H        -3.0941706831       -4.3075123158       -7.7301249573
 H        -1.0203857172       -0.5140223463       -6.3094631253
 H         0.2342496499       -1.2211773346       -7.2058705921
 H         4.6166381630       -2.0200670175       -3.6052576912
 H         3.8847837232       -0.5384321683       -3.1684171107
 H         3.6302127736       -1.2804941209       -5.6724374887
 H         2.1589530558       -0.5170710938       -6.5534770369
 H         2.3958580054       -2.2636703271       -6.2878763361
 H         1.3762364177        0.6098953561       -3.0783365827
 H         2.6331930003        1.0231561661       -4.2729742394
 H         1.0297563805        0.8687722318       -4.8639286917
 H         4.7303342195       -2.7435165555       -1.2885463762
 H         5.0004472288       -1.0709373571       -1.2001445394
 H         2.8540972158       -1.4244335338        3.7556365998
 H         3.4846189026       -0.0794684038        2.8305328167
 H         2.1642523520       -3.7813490768       -0.1984067523
 H         1.3001855064       -3.5714788031        1.1916354658
 H         3.0105396390       -4.0350877696        1.2294018759
 H         4.6624857588       -1.0682450890        1.5542330494
 H         4.1182391722       -2.6472122790        2.4511427486
 H         4.9488518161       -2.6048579018        0.7791243566
 H         0.5360373887       -0.4318693154        3.7542079589
 H         1.1140677317        0.9735404496        3.1347997742
 H         2.9499708325        3.6706590303        8.0448251222
 H         2.7623489984        1.8524317027        8.2874219772
 H         0.2668357475        3.4531578549        4.1639905625
 H         1.8498434630        2.8994845042        3.5678127565
 H         1.7916764958        4.2442539070        4.7983043613
 H         0.6707304950        1.4577808283        7.3689315351
 H         0.4828198271        3.1913782842        7.1340657549
 H        -0.5229258281        2.0669453179        6.1803648205
 H         5.2050804038        1.6287463113        8.6278375297
 H         5.4971060598        2.5040188833        7.2616929911
 H         7.1958316643        3.1676890460       12.8165391479
 H         5.8081089018        4.0756999577       13.0136164235
 H         5.7458777971        2.5029752285       13.4013169652
 H         8.0022874082        2.0093331993       10.1004246612
 H         8.6447415182        3.3776868925        9.5705125564
 H         7.5074404559        2.5594332203        8.5837338731
 H         7.4833616497        5.0655671018       11.5675518702
 H         7.6745116682        5.6327393927        9.8229077796
 H         6.0817025594        5.7746439746       10.8853288974
 Na       -0.0504054215       -1.2295765308       -1.2483940722
