155

 C        -7.7163086950        4.6434534560       -6.6225153309
 C        -7.8948978779        5.0497507756       -5.1741734702
 C        -7.8118586962        3.7969879746       -4.0931285582
 C        -6.4855041706        3.3030478131       -3.6388876301
 C        -5.9140206855        3.7189358283       -2.2869172373
 C        -8.6027680917        4.2422893844       -2.7377439036
 C        -8.7063063214        2.5874569330       -4.6907832768
 O        -8.1388631231        6.2180202849       -4.8478971098
 O        -6.0154104612        2.3277510327       -4.2924931881
 C        -4.5267376770        3.3559334295       -2.0661684905
 C        -4.2390969341        2.5448601771       -0.6676979067
 C        -2.7714369836        1.9836167252       -0.5083150341
 C        -2.4238824247        1.0075072362       -1.8047800935
 C        -3.7084293660        0.3221145043       -2.4538466632
 O        -5.0905837323        2.3724762923        0.1313021726
 O        -1.3474222644        1.0695595481       -2.3472307984
 C        -1.7506100758        3.2148794835       -0.7938485769
 C        -2.5522204258        1.3752879656        0.8333865835
 C        -3.5943081409       -1.2535217573       -2.3324119580
 C        -3.0422335133       -1.7795916403       -1.1191528474
 C        -3.1873166425       -3.2729069024       -0.8609212491
 C        -2.1431861709       -3.9115933058       -1.8862042053
 C        -2.3847479144       -5.2001373926       -2.7180891714
 C        -2.7919493419       -3.5455092367        0.5761435827
 C        -4.5884851233       -3.7646287637       -1.3083037858
 O        -2.3114784282       -1.0124486966       -0.5017562018
 O        -1.0437043101       -3.3305525492       -1.9564905498
 C        -1.5427681909       -5.0728884619       -4.0818556875
 C        -2.0772591146       -5.7720891864       -5.3029209805
 C        -1.2964050704       -5.2315455504       -6.7362055883
 C        -0.6252041183       -3.9099669966       -6.5901451852
 C        -1.3943493789       -2.5443746569       -6.2949713243
 O        -2.8648589501       -6.6139869924       -5.2578193419
 O         0.5839095797       -3.7683376632       -6.6577043135
 C        -0.1984301584       -6.2849312163       -6.9454696092
 C        -2.2706178889       -5.3540281849       -7.8824114946
 C        -0.3668007335       -1.3077713271       -6.1021200657
 C         0.2234628713       -1.4953742585       -4.6998034642
 C         1.7688422050       -1.1226741322       -4.4336270387
 C         2.4741663507       -2.0406913262       -3.4840108580
 C         3.8655790737       -1.7508227932       -3.1146088505
 C         2.6846690743       -1.1979727149       -5.6843544199
 C         1.8222728593        0.3522864445       -3.9979593858
 O        -0.5945369128       -1.5828734488       -3.8031551240
 O         1.8418954658       -2.8645034085       -2.9101215234
 C         3.9624165838       -1.9617574453       -1.5812374678
 C         2.7273645441       -1.4874797956       -0.6297529147
 C         2.9416541198       -2.0338266906        0.7540584685
 C         1.9216618561       -1.3021237792        1.8342260573
 C         2.3880206827       -0.9153295286        3.2552258503
 O         1.8962762654       -0.6619605087       -1.0690498229
 O         0.9644509953       -0.8940566941        1.3634029507
 C         2.1185311917       -3.3820558349        0.6616495713
 C         4.3717237340       -2.2079925844        1.1909080522
 C         1.5429200932        0.1487426438        3.8451425132
 C         1.9705667186        0.6209426087        5.2482816452
 C         1.9380560417        2.1337027370        5.7512529449
 C         3.3675760635        2.7366583711        6.2238969289
 C         3.6051862499        2.6894498629        7.7310965764
 C         1.3238222169        3.0436033506        4.6557415065
 C         0.8895084104        2.3355923800        6.9868123580
 O         2.3753273498       -0.1367247602        6.1033750078
 O         4.2263564936        3.1222516011        5.4541632729
 C         5.0414346383        2.6404528313        8.0575572095
 C         5.5185185633        3.8844162136        8.8891824155
 C         6.6442803631        3.6580448473        9.8817475098
 C         6.0126587547        2.8282967746       11.1938571781
 C         6.6261903032        3.2245053906       12.4890523370
 O         4.8350626070        4.9170811917        8.9739524148
 O         5.2715084869        1.8639451047       10.9914815339
 C         7.9632520407        2.9413428495        9.3712008546
 C         6.9585552441        5.1501233801       10.3443872909
 H        -6.9925955752        5.2560238545       -7.0891409758
 H        -7.3946913573        3.5924113673       -6.5905639011
 H        -8.6977616892        4.7375908057       -7.1227342920
 H        -6.0782750252        4.8084609528       -2.0187277118
 H        -6.4881797857        3.1567004694       -1.4428431552
 H        -9.5395008536        4.8937522125       -2.9076405646
 H        -7.9970598299        4.7396184853       -2.0132623403
 H        -8.7564891605        3.3030261882       -2.2176552822
 H        -9.4649416794        3.0849495238       -5.4039286802
 H        -8.0940243022        1.8090165665       -5.2002381428
 H        -9.2022079640        2.0652766495       -3.8510461782
 H        -4.2410717184        2.7873076475       -2.9694650246
 H        -3.9410602743        4.3446871044       -2.1516905894
 H        -4.5751426999        0.5423894575       -1.8098537128
 H        -3.9645583554        0.6842583094       -3.4501531964
 H        -0.7138074376        2.9232576177       -0.6083809062
 H        -2.0427231028        4.0322474584       -0.1432359101
 H        -1.7556075425        3.4831829303       -1.8131195344
 H        -3.2079463395        0.5393484890        1.1019198897
 H        -1.5268844283        0.9910706054        1.0416276874
 H        -2.6451914695        2.1526147228        1.6299503076
 H        -3.0515747210       -1.9165383316       -3.0399469848
 H        -4.6138256662       -1.8126021098       -2.4833277143
 H        -1.9523743839       -5.9737372278       -2.0267147283
 H        -3.4515070079       -5.3089929322       -2.9594651145
 H        -2.8541061783       -4.5147231378        0.8552812302
 H        -3.3252241098       -2.8565159905        1.1894210511
 H        -1.7226051840       -3.4088818516        0.4364838473
 H        -4.6788489676       -3.8192342839       -2.3393950825
 H        -4.5743596227       -4.7708643825       -0.8749616478
 H        -5.3352492230       -3.0390685107       -0.9797855675
 H        -1.4922524158       -3.9412028000       -4.3854214430
 H        -0.6025087951       -5.4085524395       -3.9535009522
 H        -1.9520657395       -2.5664987739       -7.2603543483
 H        -2.1776248536       -2.5084426044       -5.4220778413
 H         0.2272969304       -6.3798043556       -7.9232780949
 H        -0.4967317730       -7.2105835968       -6.4655309943
 H         0.6804432909       -6.0868983152       -6.3328357156
 H        -1.7859739215       -5.3854915498       -8.8421958907
 H        -2.7439551115       -6.3299224848       -7.7423366598
 H        -3.0543918783       -4.6196008146       -7.7467491532
 H        -0.9218772732       -0.2894895133       -6.3327894365
 H         0.2635756096       -1.3113328506       -6.9196362329
 H         4.6183446698       -2.4068179490       -3.6951855146
 H         4.2152250311       -0.7321454988       -3.2917191312
 H         3.7208778728       -1.1128668597       -5.3738315235
 H         2.2590922152       -0.2906429738       -6.2216532000
 H         2.4729768788       -2.2300198419       -6.2128781621
 H         1.0151781555        0.4605143250       -3.2420814211
 H         2.7993948606        0.5608640828       -3.5272943031
 H         1.7821857928        1.0996896883       -4.7925131109
 H         4.2401628327       -3.0273321779       -1.4861740840
 H         4.9255612200       -1.4699641538       -1.2479879205
 H         2.6681236999       -1.6136704185        4.0235876899
 H         3.3582403706       -0.5768960627        2.9022754965
 H         1.1768099262       -3.2429545388        0.0636500730
 H         1.8359771237       -3.7997079154        1.6045181335
 H         2.6562353898       -4.1532950406        0.0457057309
 H         4.9676095466       -1.3578558475        0.8416383845
 H         4.3114932818       -2.4450834060        2.2415372958
 H         4.6255920806       -2.9790377824        0.5020636754
 H         0.4897550785       -0.2580668616        3.9366313261
 H         1.3153447518        1.0048926547        3.0411708581
 H         3.2856480520        3.6181629281        8.1946227056
 H         3.0791230788        1.8917535062        8.1386638708
 H         0.7342196798        3.8432878716        5.0921586191
 H         0.5308893702        2.7324767090        3.9811303023
 H         2.1970655784        3.4522187675        4.2289889722
 H         1.1107515955        1.5376589612        7.7112205572
 H         0.9182605136        3.2554497186        7.5033806939
 H        -0.1420028170        2.2964942165        6.6270403487
 H         5.4222738414        1.7412167912        8.5614258475
 H         5.7352794829        2.5475119015        7.1713839366
 H         7.6950629943        3.5651401586       12.4968596996
 H         6.1256432818        3.9995237556       13.0820058091
 H         6.5277293193        2.3490864219       13.1727919493
 H         8.6914050568        2.4857449676       10.0354361957
 H         8.6463590687        3.6958984958        8.8429388031
 H         7.6701131442        2.0964265527        8.7236363598
 H         8.0154371773        5.4772141154       10.6081814160
 H         6.7142875489        5.6083116229        9.4541814343
 H         6.3084504539        5.4711274944       11.1305720527
 Na       -0.2122693150       -1.2743741928       -1.4792689898
