155

 C        -7.2742793113        5.1852146438       -6.4526817517
 C        -8.1092161758        5.4146958408       -5.0146390882
 C        -8.5119800420        4.0123482615       -4.2610546310
 C        -7.1678589994        3.4595881480       -3.6397073919
 C        -6.7920889425        3.7558662465       -2.1846394550
 C        -9.4898738148        4.0938378430       -2.9926994652
 C        -9.0279380615        2.9487143549       -5.3417782888
 O        -8.3494914338        6.5068981064       -4.6311262107
 O        -6.4330219889        2.8318491222       -4.4179197012
 C        -5.2883447911        3.2910790714       -2.0456115501
 C        -4.6449102013        2.5953133113       -0.6882788321
 C        -3.0875766314        2.4771193577       -0.8122623544
 C        -2.5789212860        1.0998026684       -1.5647097807
 C        -3.6345616288        0.1674508849       -1.9828622388
 O        -5.3628145083        2.0591091523        0.1959034081
 O        -1.3971682569        0.9416258207       -1.6477465058
 C        -2.4153603757        3.5851924079       -1.6600812651
 C        -2.3188860036        2.4434616685        0.5261531388
 C        -3.2050367879       -1.2692175421       -2.2394645734
 C        -2.9284873037       -2.1378047530       -0.9510148935
 C        -3.7529187801       -3.5365457249       -0.6958810896
 C        -2.8398868720       -4.5846490450       -1.4576956388
 C        -3.1977405463       -4.8208321917       -3.0248335110
 C        -3.5981209077       -3.8802458309        0.8019498167
 C        -5.3485269695       -3.4892732442       -1.1983679566
 O        -2.0287480945       -1.8793066418       -0.1744364816
 O        -1.8675828520       -4.9694435469       -0.8480776794
 C        -2.2157497884       -5.5914423098       -3.7680363520
 C        -2.2266079774       -5.1079879238       -5.2651253477
 C        -1.1670845050       -5.4230424949       -6.2566147433
 C        -0.3936188866       -4.0533149493       -6.2327710109
 C        -1.1841397958       -2.7865363803       -6.8211808608
 O        -3.2177523622       -4.3784794663       -5.6284338221
 O         0.5507759330       -3.9697862219       -5.5225085882
 C        -0.3382373889       -6.6182538930       -5.6579306535
 C        -1.8094435555       -5.8995229161       -7.5930266863
 C        -0.2581108745       -1.5599673235       -6.5647804458
 C         0.1939278804       -1.3959245720       -5.1336642898
 C         1.5431315670       -0.8979719290       -4.5703958233
 C         1.8601853931       -1.9382098043       -3.3642234967
 C         3.3620266679       -2.2156306052       -3.2487216650
 C         2.6274664200       -0.9528942789       -5.7111377785
 C         1.4190442988        0.6186533924       -4.0535108345
 O        -0.7292935788       -1.5471470515       -4.3431848201
 O         1.1151335569       -2.1147849391       -2.3940601129
 C         3.6360504521       -2.6556925339       -1.7576272501
 C         3.0699248107       -1.7296014332       -0.5855049347
 C         2.3356126794       -2.3736196203        0.6994429485
 C         1.5462668990       -1.1524179844        1.5356008143
 C         2.4657116325       -0.6793399905        2.8472641268
 O         2.9371556890       -0.4826347320       -0.8271817740
 O         0.5334832914       -0.6790133946        1.1579540326
 C         1.4147806221       -3.5775852051        0.5354356551
 C         3.6443692822       -2.8261073225        1.5037314029
 C         2.0595558918        0.6402314186        3.4914012230
 C         2.5607042232        0.6219671466        4.9545290569
 C         2.4516977093        1.8926615225        5.8249242160
 C         4.0249720248        2.4738324615        6.0433909144
 C         4.4164461072        2.4582758151        7.5505422547
 C         1.4440104209        3.0339870261        5.3206935521
 C         1.7454794626        1.3413594669        7.0615825076
 O         3.1571383614       -0.3347041951        5.4544128175
 O         4.7962737265        2.7122043185        5.1621812841
 C         5.8755335351        2.7265320267        7.9092786511
 C         6.0808367516        3.6675267684        9.1119412437
 C         7.5138105294        3.9380701403        9.4680230452
 C         7.6874537983        2.8194997482       10.6829910661
 C         7.9739371883        3.3963957326       12.0329861573
 O         5.1642032054        4.1986547607        9.6709926333
 O         7.4599871807        1.6599209769       10.5859230933
 C         8.5500650698        3.5653033732        8.4019487990
 C         7.5727714920        5.4104588474        9.9143870120
 H        -7.4151370279        6.0210655540       -7.1295710944
 H        -6.2809121538        5.4051312402       -6.0688196217
 H        -7.4708985327        4.1779243229       -6.8977934507
 H        -6.9827045702        4.7998609978       -1.9697805048
 H        -7.4414676896        3.1021852960       -1.5615094699
 H       -10.4940521970        3.7216828199       -3.0232799768
 H        -9.6038664564        5.2035151408       -2.6334494858
 H        -9.0119699469        3.5039370200       -2.1167972711
 H        -9.3176781318        3.3723869131       -6.2700932451
 H        -8.2779589093        2.2629184020       -5.4221560918
 H        -9.8841336016        2.5214040939       -4.8263520650
 H        -5.0197659149        2.7305756302       -2.9252604683
 H        -4.6307799414        4.1908301304       -2.2060410473
 H        -4.4395991225        0.1266540039       -1.2371266972
 H        -4.0697650933        0.6853096995       -2.8990587725
 H        -1.3214083610        3.4449824563       -1.6052919941
 H        -2.7410149967        4.4957872039       -1.1204809718
 H        -2.8174585923        3.7438286082       -2.6471767456
 H        -2.5356129657        1.5224941034        1.0965451513
 H        -1.3002566710        2.4407789107        0.2638376854
 H        -2.4233839270        3.2703227779        1.2713781816
 H        -2.3097161616       -1.2324742373       -2.8308532747
 H        -3.9951250405       -1.7924804404       -2.7702514949
 H        -4.2590849982       -5.0255914631       -3.0832981125
 H        -3.3063950396       -3.8137920389       -3.4672785065
 H        -4.2769268401       -4.7220912348        1.1027272979
 H        -3.7704583320       -2.9435950322        1.3329723763
 H        -2.5494265195       -3.9629368749        0.9174075474
 H        -5.4619872706       -3.9162230671       -2.1569111490
 H        -5.8028295218       -3.9882154552       -0.3817640779
 H        -5.6133426843       -2.4701858994       -1.0422433278
 H        -1.2765249575       -5.6329581266       -3.2241963362
 H        -2.4850415124       -6.6754594306       -3.8286735073
 H        -1.5064676358       -2.9244595776       -7.9144308597
 H        -1.9497907724       -2.6829460845       -6.1390589928
 H         0.2203853033       -7.2095028749       -6.3740770714
 H        -0.8987299841       -7.4205535366       -5.1510963042
 H         0.3493972272       -6.2107275853       -4.9257620351
 H        -0.9904157188       -6.2408137961       -8.2670849060
 H        -2.4584879892       -6.6999576347       -7.2974518370
 H        -2.3793746066       -5.0744286801       -8.0167237337
 H        -0.8917248154       -0.7160874376       -6.7598707230
 H         0.6425881046       -1.5746900202       -7.3897430644
 H         3.7869370687       -2.9919612592       -3.9129262118
 H         3.9646349178       -1.3982350336       -3.3488428269
 H         3.6982809905       -0.5359161433       -5.3691142276
 H         2.1419577801       -0.3455276539       -6.4266762918
 H         2.4637754823       -1.9398310316       -6.0682288956
 H         0.4144991202        0.9051080898       -3.6753599840
 H         2.0769180354        0.7895767489       -3.2479389341
 H         1.5426851351        1.3451677589       -4.9575468534
 H         3.3809221648       -3.6349097692       -1.6702997448
 H         4.8056952440       -2.7093024492       -1.6469652255
 H         2.3879053034       -1.5189802203        3.5511559245
 H         3.4282162569       -0.5895195866        2.3847952112
 H         0.7449446260       -3.5089862821       -0.2453002709
 H         0.6696470996       -3.5944663624        1.4088612082
 H         1.8195461233       -4.4961608630        0.3558086383
 H         4.1455953967       -1.9054176967        1.5201863724
 H         3.3625360432       -3.4168858419        2.4310827237
 H         4.1372612805       -3.5428773878        0.8562667909
 H         0.8852423210        0.7526569561        3.6494757120
 H         2.5438091945        1.3723319642        2.8257644855
 H         3.6860626360        3.0913929672        8.1670211838
 H         4.1915905879        1.4370602221        7.8602158108
 H         0.5554438452        2.7009127688        4.7569656983
 H         1.8944617447        3.8064641072        4.5858591550
 H         1.2262992969        3.7469709571        6.1014556879
 H         2.1311349354        0.3527283541        7.2170408185
 H         1.7603587004        1.9442120542        8.0028191086
 H         0.7839950066        1.0410804769        6.6972208508
 H         6.3466794279        1.7255416445        8.1768986480
 H         6.4598232667        3.1273009896        7.0910429887
 H         8.5439039224        4.2876875932       11.9883081423
 H         7.0103320516        3.8462184310       12.3331949300
 H         8.2676093729        2.7319811063       12.7690113482
 H         9.3511248359        2.9473223926        8.7446282114
 H         8.9055558629        4.4403438932        7.9426239436
 H         8.1396482295        3.1607918205        7.5245713085
 H         8.5624130089        5.5820483621       10.2890355003
 H         7.3772207233        5.9519275430        8.9556713306
 H         6.6204149594        5.6890343809       10.5119810130
 Na       -0.2228881087       -0.7509389031       -1.2440051164
