155

 C        -7.8266166538        6.3418114747       -5.6413650370
 C        -8.5495769692        5.7460107164       -4.4785749475
 C        -9.1126237012        4.2059708896       -4.5146971367
 C        -7.7461070157        3.4290102553       -4.2062117684
 C        -7.1537627756        3.7857589379       -2.8580287325
 C       -10.1898477009        3.9357563951       -3.4960881217
 C        -9.5558280593        3.7917371623       -5.9633992908
 O        -9.0254431876        6.5654625655       -3.6522233576
 O        -7.3654128997        2.5488859508       -4.9789539824
 C        -5.5946240613        3.5378406297       -2.7230956611
 C        -4.9846715908        2.5676893349       -1.7062621935
 C        -3.5367225876        2.7122420935       -0.9745957330
 C        -2.8206646939        1.3146533405       -0.4429437790
 C        -3.4865799232        0.4918322400        0.6717129120
 O        -5.6037326147        1.6367837006       -1.3318972661
 O        -1.7006510909        1.0401603768       -0.8411678110
 C        -2.5068690369        3.3580077422       -1.8896408454
 C        -3.7631359837        3.4367005328        0.3867951374
 C        -4.2956409390       -0.4990308708       -0.1131338947
 C        -3.7266712635       -1.8117589123       -0.5166132421
 C        -4.7085240334       -3.2084745256       -0.3257258466
 C        -4.2487188962       -4.3394423923       -1.2173208361
 C        -3.9949014549       -3.9956982786       -2.7367938384
 C        -4.5715159251       -3.5498777216        1.1365131859
 C        -6.2949418160       -3.0011293117       -0.5809091697
 O        -2.5717936070       -2.1400990275       -0.7711110866
 O        -4.3184251870       -5.4690530834       -0.7146718437
 C        -2.9504944726       -5.0018281272       -3.3482669698
 C        -2.5665495338       -4.6788005360       -4.8101061712
 C        -1.2586176537       -5.4504690591       -5.4464568791
 C        -0.0587375559       -4.3409402115       -5.5695318032
 C        -0.4207426724       -3.1434047979       -6.4779894487
 O        -3.2311629766       -3.9217387469       -5.5342518037
 O         1.0393293596       -4.4829958914       -5.0719724000
 C        -0.7956674284       -6.5386664843       -4.4550885041
 C        -1.7259249042       -5.9512811871       -6.8498693903
 C         0.6667186489       -2.1339258503       -6.5860879426
 C         0.3515031801       -1.0041918035       -5.6637158803
 C         1.5057602620       -0.4691023005       -4.6647383310
 C         1.4477738954       -1.4368076381       -3.3995459488
 C         2.4813771567       -2.5620101127       -3.2345809914
 C         2.9069809145       -0.4309970858       -5.4465637468
 C         1.0261458507        1.0307457571       -4.2847084104
 O        -0.7316115660       -0.4563472796       -5.8121917875
 O         0.5543808011       -1.1820672900       -2.6035001910
 C         2.3092303877       -3.4173073182       -1.8953052269
 C         2.9655457515       -2.5038302098       -0.7772635944
 C         2.7959229311       -2.8386628128        0.7904386801
 C         2.4011138252       -1.4171732014        1.4704876721
 C         3.2980792709       -0.8228481628        2.5491726948
 O         3.7456185708       -1.5646935836       -0.9593543736
 O         1.3147184469       -0.9807701357        1.2330499804
 C         1.5256197858       -3.7378857226        1.2201336436
 C         3.9545503964       -3.8081542723        1.3121176484
 C         2.6144715618        0.2770348138        3.3929431705
 C         3.1641184489        0.1313724982        4.9330686548
 C         3.0043205977        1.3078929156        5.9201614374
 C         4.5779654329        2.0069624990        6.0128114916
 C         5.1165401576        2.6259621628        7.3013432381
 C         1.8902855307        2.2083419451        5.4990993842
 C         2.6901435136        0.8682494464        7.3763876389
 O         3.4969753979       -0.9852148569        5.1681544571
 O         5.1290756200        2.1841150067        4.9454949199
 C         6.6196405881        2.6908127517        7.1737621881
 C         7.1663690815        3.3548157047        8.4351848372
 C         8.5685988631        4.1058185584        8.6479169191
 C         9.6374682111        3.1316057499        9.4408333171
 C         9.2187985570        2.1759900656       10.6118909178
 O         6.4803044062        3.3401264129        9.4737319364
 O        10.7861876036        2.9979241412        9.0575452649
 C         9.3425381968        4.4675930788        7.2871706693
 C         8.3175753990        5.2918539549        9.6958678582
 H        -7.6223433966        7.3246321688       -5.2898348601
 H        -6.8973145761        5.6980669383       -5.8381418728
 H        -8.3917424390        6.2865484893       -6.4994642586
 H        -7.4585484162        4.7590716692       -2.5067506478
 H        -7.7824584573        3.1175183039       -2.2732635571
 H       -10.9492876196        4.6596833178       -3.6603871909
 H        -9.9847381386        4.0079023185       -2.3998049463
 H       -10.5739520798        3.0058716060       -3.7137352109
 H       -10.5258104936        4.3802481132       -6.0763361701
 H        -8.7997028418        4.0778968344       -6.8057222215
 H        -9.5961552237        2.6920784234       -6.0619393776
 H        -5.1594372536        3.1206182269       -3.6682880196
 H        -5.0903440193        4.5233843831       -2.4384894942
 H        -2.7348247724        0.0086314852        1.3071933451
 H        -4.2541978423        0.9173388618        1.3744021104
 H        -1.6928144052        3.8614887343       -1.4050678906
 H        -2.9761774111        4.1787377635       -2.4276087148
 H        -2.0739098310        2.5923983665       -2.6410405821
 H        -4.6879688438        3.1195947045        0.8637681984
 H        -2.8760899487        3.2002839117        1.0670616688
 H        -3.6082184432        4.5137115198        0.3252934692
 H        -4.5625736825        0.0252325433       -1.0655641607
 H        -5.2050440882       -0.7052854382        0.3983583715
 H        -4.9193556209       -4.1860716669       -3.2443364784
 H        -3.6332081472       -2.9578744042       -2.6675776424
 H        -4.9639951947       -4.5214780845        1.2639030351
 H        -5.1776296782       -2.8455771298        1.8237416195
 H        -3.4505167272       -3.5791985922        1.4763183588
 H        -6.5687747956       -2.8970898911       -1.6477579505
 H        -6.8473279553       -3.8728736205       -0.1878165530
 H        -6.8248677878       -2.1676117782       -0.0729641247
 H        -2.0636666835       -4.9900388513       -2.7300569125
 H        -3.4893881246       -5.9560254116       -3.5877894690
 H        -0.4895589789       -3.6514514370       -7.3794087039
 H        -1.4114853173       -2.7881193721       -6.3442813641
 H        -0.2474047856       -7.3135488454       -4.9733815931
 H        -1.6574108302       -7.0080207166       -4.0030674287
 H        -0.3084323387       -6.1481677537       -3.5911020614
 H        -0.9999629542       -6.5843309288       -7.3883069969
 H        -2.7045261808       -6.4435201578       -6.8560833776
 H        -2.0188893847       -5.0126771298       -7.3481729951
 H         0.9692497301       -1.7111842840       -7.6614067266
 H         1.5087131829       -2.6342418551       -6.2463539417
 H         2.5327295441       -3.1538926051       -4.0546010945
 H         3.5174012243       -2.1295724320       -3.1059964752
 H         3.5792589622       -0.1952242642       -4.6902591248
 H         2.9531553432        0.3373719608       -6.2314187850
 H         2.9997007408       -1.4564614478       -5.9024800187
 H         0.1893065932        1.3583631581       -4.8439194561
 H         0.7548415695        1.1294758596       -3.2301885326
 H         1.8006378992        1.7257843601       -4.2553612178
 H         1.2857367754       -3.7073656535       -1.4405408185
 H         3.0411787305       -4.2415690567       -1.8375559866
 H         3.3944281007       -1.7442863534        3.2289392493
 H         4.3074027336       -0.5344758607        2.2254514992
 H         1.8135778121       -4.7986864641        1.0149982742
 H         0.5235158355       -3.5714951139        0.7960309634
 H         1.3537590463       -3.5038753995        2.3410151018
 H         4.9915846287       -3.4896144868        1.2361173470
 H         3.7272023062       -4.0100402079        2.2759605673
 H         3.6512533513       -4.7423893924        0.8887225332
 H         1.6127870239        0.0447217777        3.4587233792
 H         2.6496086744        1.2971257983        3.1155383550
 H         4.6961458376        3.6424793074        7.3786750029
 H         4.7973583258        2.0792622632        8.1311190967
 H         0.9815960194        1.6664414411        5.3067408669
 H         2.0000842389        2.7458025734        4.6398196726
 H         1.5121262700        2.7959334921        6.3749224615
 H         3.4753782736        0.2592816741        7.8122949258
 H         2.4455014728        1.8388475039        7.8380624799
 H         1.8095922031        0.3065805026        7.3481913241
 H         7.1301207308        1.6773307515        7.1681197619
 H         6.8890025839        3.2191002878        6.3259420401
 H         8.1996105168        2.4436608229       10.9447994649
 H         9.3074644796        1.1724380151       10.2123054855
 H         9.8976966863        2.4125189546       11.5104952536
 H        10.3127514562        4.8309954821        7.5174681766
 H         8.7480169379        5.0600841144        6.6208465205
 H         9.4171132139        3.5302967032        6.7877003120
 H         9.1502233192        6.0161533125        9.5691901024
 H         7.3419785281        5.6666144265        9.5261852953
 H         8.3049065247        4.7961075585       10.5643573028
 Na       -0.4573330546       -1.1306144072       -0.1508140513
