155

 C        -8.0076609684        6.6746081037       -5.1374339857
 C        -8.8508110857        5.9720553684       -4.1830815738
 C        -8.9039998141        4.2428856247       -4.4586250801
 C        -7.4822078551        3.6241815606       -4.4465511238
 C        -6.8824848913        3.4532113937       -3.0110972233
 C        -9.8913000605        3.6187102357       -3.3984355234
 C        -9.5276556810        3.9987612462       -5.8420585092
 O        -9.3889478259        6.3235996484       -3.1581002477
 O        -6.8193514885        3.5598197870       -5.4658793055
 C        -5.5243184104        2.6950142784       -3.0661300594
 C        -5.2029719741        2.2552779376       -1.6464173407
 C        -3.5992980719        2.7063829483       -1.0315522117
 C        -3.3065549101        1.2750446135       -0.5064278624
 C        -3.7914789735        0.6871596402        0.8720268084
 O        -6.0371512556        1.7334646496       -0.9253768544
 O        -2.5348558804        0.6034427851       -1.1529279991
 C        -2.5998803255        3.1492577310       -2.1022622467
 C        -3.7769971913        3.9078543641       -0.0342089173
 C        -4.6752174059       -0.4744531173        0.5192135854
 C        -3.9929588098       -1.8291301042        0.2588397528
 C        -4.9961412959       -3.0349733314       -0.1260051050
 C        -4.2850266059       -4.0143438672       -1.1031622685
 C        -3.5666110205       -3.4907363531       -2.3574720945
 C        -5.3187711254       -3.6740582840        1.2803760542
 C        -6.2268946219       -2.4036199546       -0.8699948461
 O        -2.7857937305       -1.9792602015        0.3632138241
 O        -4.0615093197       -5.1716318611       -0.7652390673
 C        -2.6626467776       -4.5479161823       -2.9540860011
 C        -2.7102645230       -4.6702184564       -4.5037823921
 C        -1.6873176708       -5.4527896460       -5.3624900419
 C        -0.3010431967       -4.5725125458       -5.3302387204
 C        -0.3874170446       -3.2772336160       -6.2198886366
 O        -3.5767013627       -3.9820175259       -5.1058232082
 O         0.4984592458       -4.7468530834       -4.4035034507
 C        -1.3762196355       -6.7165355360       -4.6025261551
 C        -2.2314024676       -5.7140858457       -6.7322609675
 C         0.9170147751       -2.4092224370       -6.2017732842
 C         0.5490148500       -1.0302699725       -5.8366084657
 C         1.3663490021       -0.2026531662       -4.6649533709
 C         1.2275561895       -0.8807855683       -3.3115690356
 C         2.1266898097       -2.1447232038       -2.9593875101
 C         2.8425511393       -0.2885012930       -5.2214841394
 C         0.9560850378        1.2597299988       -4.6391004458
 O        -0.3472956247       -0.3977577859       -6.3694367827
 O         0.2735552639       -0.5269145181       -2.6123066733
 C         1.6889140057       -2.9307753698       -1.7539729966
 C         2.7191199843       -2.6589184592       -0.5898930464
 C         2.7021066886       -3.2499703584        0.8698376052
 C         2.3430525188       -1.9548020353        1.6881829398
 C         2.9816482846       -1.6159683944        3.0577699622
 O         3.5210107153       -1.6744790006       -0.6782997090
 O         1.2969117231       -1.2744855146        1.3708973986
 C         1.5542275342       -4.4134365870        1.2550665615
 C         4.1988972541       -3.6402502528        1.2056262168
 C         3.1561749000       -0.1905905046        3.5892474204
 C         3.4814051566       -0.0906380581        5.0102571148
 C         3.5214712184        1.2287586450        5.7463316378
 C         4.8843220042        1.8313057529        5.6068704144
 C         5.8355203409        1.8544401940        6.7878268724
 C         2.4203424342        2.1685481667        5.4329809280
 C         3.3855099003        0.6480986551        7.2454746754
 O         3.6813104143       -1.0711547374        5.7102803946
 O         5.3069990481        2.2441922673        4.5422425306
 C         6.8025039997        3.0508696178        6.7231970518
 C         7.5988007409        3.2454005394        8.0408275406
 C         8.8928519558        4.2427830415        8.2369400818
 C        10.1014074964        3.0035497144        8.4553702610
 C         9.8809459670        1.7880707171        9.4278995107
 O         7.3702208929        2.6575204781        9.0781019520
 O        11.1570528649        3.1317689396        7.8464625903
 C         9.2156157663        4.9862395842        6.9801083154
 C         8.4230047167        5.1214261820        9.4444753001
 H        -8.0844401129        6.1866882422       -6.1495780470
 H        -8.3048516972        7.7090708701       -5.0940591431
 H        -6.9928553222        6.5156738316       -4.8044132118
 H        -6.6589618802        4.4340262101       -2.6308625543
 H        -7.6518643678        3.0468396266       -2.4103289738
 H       -10.4196104043        2.8894320231       -3.9395440124
 H       -10.5768315147        4.2576891590       -2.9480302508
 H        -9.3763385285        3.1324586209       -2.5764426787
 H       -10.2558847866        4.6776752059       -6.2461833316
 H        -8.6254918703        3.8981949535       -6.5596491389
 H        -9.9776730648        2.9919771425       -5.8288285234
 H        -5.6457572373        1.7543011131       -3.6386649416
 H        -4.6713084974        3.2210356461       -3.5232685253
 H        -2.9287501770        0.4627157672        1.4778065121
 H        -4.3058974906        1.5211659138        1.3150867330
 H        -1.6832459190        3.4435211473       -1.5532020969
 H        -3.0223667459        3.9953617566       -2.6420440897
 H        -2.2324629797        2.4163525684       -2.7893159317
 H        -4.7979013545        3.7476152502        0.4052837328
 H        -2.9781429797        3.9159936899        0.7169663295
 H        -3.6888428332        4.9711724374       -0.4177342791
 H        -5.1691919799       -0.3057875497       -0.4324950363
 H        -5.5501346196       -0.7613714116        1.0688808070
 H        -4.4142800488       -3.1575636029       -3.0487868403
 H        -3.0155269849       -2.6027877714       -2.0872998111
 H        -5.7595327891       -4.6890679332        1.2693596009
 H        -5.8541720040       -2.9593685205        1.9693089355
 H        -4.3150515839       -3.5608612218        1.8577457737
 H        -5.8802561519       -2.0139672082       -1.8741359446
 H        -7.0607524214       -3.0955031165       -1.1707595594
 H        -6.8708178589       -1.6484255039       -0.3488965119
 H        -1.6876520199       -4.1924693943       -2.8598152347
 H        -2.9056820770       -5.5821281025       -2.4774417840
 H        -0.7433141740       -3.5354519783       -7.3171683854
 H        -1.1943855509       -2.6695211709       -5.9004597291
 H        -1.1244279822       -7.5415781585       -5.2255536338
 H        -2.2562559163       -7.0537521028       -4.0661743362
 H        -0.4950232136       -6.5258028524       -4.0407664819
 H        -1.7017363107       -6.5136601738       -7.3103072189
 H        -3.2430448488       -6.1052915276       -6.6505607401
 H        -2.2406762145       -4.8245448208       -7.3872814566
 H         1.4455778533       -2.4811932075       -7.1698754787
 H         1.5629044814       -2.7464900217       -5.4851138463
 H         2.3242709672       -2.8830193594       -3.7817384104
 H         2.9686041490       -1.5779555032       -2.8742715165
 H         3.6433122833        0.1599420123       -4.6060348436
 H         2.7171819486        0.1718973614       -6.3422808620
 H         3.1538342026       -1.3914921572       -5.2897443190
 H         1.7843787655        1.8828867191       -4.7805087786
 H         0.1837883372        1.4968354651       -5.4434788503
 H         0.5046118240        1.6433887421       -3.8108921754
 H         0.6523777998       -2.6360872725       -1.4045033194
 H         1.6817752757       -3.9265609619       -1.8579567558
 H         2.5291882533       -2.2191655596        3.8088840961
 H         3.9656932868       -2.0422065242        3.0826986319
 H         0.7022008100       -4.4364154399        0.5211100732
 H         0.9975805721       -4.0051611866        2.0389894349
 H         1.9943102972       -5.4752346084        1.3224380692
 H         4.8391089300       -2.7996731106        0.9874984266
 H         4.2292964087       -3.8292056954        2.2635575644
 H         4.6248772385       -4.3982631423        0.5834008969
 H         2.1343724872        0.3616765625        3.6965643890
 H         3.8959898931        0.2200672455        2.9180309620
 H         5.3084616423        1.9724662329        7.6883861718
 H         6.3176663965        0.8372231101        6.7324011019
 H         1.5381771893        1.6503223663        5.1790050234
 H         2.6546267223        2.7817966469        4.5941443552
 H         2.2938220433        2.9334961543        6.1373140713
 H         4.2470621488        0.1258398572        7.4862391807
 H         3.2125478240        1.4363703820        8.0120161423
 H         2.4969920652        0.0840375666        7.1339856438
 H         7.5310478651        3.0759764906        5.9582470603
 H         6.2454039214        4.0161431557        6.5171946113
 H         8.8659379943        1.3919271393        9.4061749579
 H        10.6208648934        1.0418641626        9.0308458225
 H        10.2490084169        2.2825605730       10.3882267257
 H         9.8083843332        5.9094605724        7.1756712063
 H         8.2878818187        5.1964969447        6.5314401410
 H         9.8405023973        4.2863028142        6.4082024917
 H         8.9867832707        6.0112145061        9.4960155369
 H         7.3935498588        5.4190012453        9.1093307473
 H         8.3334105996        4.4612306976       10.2814742106
 Na       -0.7918549253       -0.7961950419       -0.1227720683
