155

 C        -8.3304126306        6.9001353897       -4.9087864601
 C        -8.9380690181        5.8099972075       -3.9846424256
 C        -8.9155486832        4.2701152692       -4.5017246356
 C        -7.3833348865        3.8527284951       -4.3770657518
 C        -7.0928599102        3.3006963648       -2.9844782924
 C        -9.9402075960        3.4454029326       -3.8281522699
 C        -9.2789876930        4.2373704337       -5.9461699795
 O        -9.2753635932        6.2426654315       -2.8593908694
 O        -6.5952939618        4.0452716321       -5.3090424183
 C        -5.6992545644        2.5726300470       -2.9948141733
 C        -5.2109298020        2.2221324163       -1.6025296982
 C        -3.6540508143        2.3117622732       -1.2019563923
 C        -3.0601768660        1.1806800845       -0.3472687136
 C        -3.3569643840        0.6972023779        1.0859856085
 O        -6.0090702434        1.8739744805       -0.7814647212
 O        -2.0061806126        0.8245319598       -0.8012036947
 C        -2.7322144698        2.6956003568       -2.4337006568
 C        -3.6301674803        3.7538804856       -0.4236332798
 C        -4.4732220801       -0.3738863713        1.0593008701
 C        -4.0864792333       -1.6616399295        0.4620816340
 C        -4.9198994899       -2.8081402368       -0.0364699636
 C        -3.8146014497       -3.8163848175       -0.7037688179
 C        -3.0882691545       -3.2390934755       -1.9679382812
 C        -5.5761427104       -3.5733014072        1.1044423353
 C        -6.0305344980       -2.2730465556       -1.0036312327
 O        -2.8989681462       -1.9236021701        0.4671092550
 O        -3.6456438793       -4.9705442822       -0.3288056909
 C        -2.5287322563       -4.4678570115       -2.6885101556
 C        -2.7777709794       -4.4259209270       -4.2700441549
 C        -1.9227508012       -5.2904913704       -5.2631307633
 C        -0.6307506776       -4.3768427627       -5.2801694195
 C        -0.2707450825       -3.5580482604       -6.4988350978
 O        -3.6970828853       -3.7280178587       -4.7216124571
 O         0.0793988583       -4.4282027617       -4.2912373228
 C        -1.6591614718       -6.6928883673       -4.4994101542
 C        -2.6806975492       -5.4845812986       -6.6170003031
 C         0.8282546517       -2.4858608915       -6.1936253365
 C         0.3494441371       -1.0599517931       -5.7300516573
 C         1.2434772772       -0.2331769261       -4.5352557889
 C         0.9215627717       -0.8841130463       -3.1928409582
 C         1.8376546399       -2.0564189229       -2.9525010764
 C         2.6984559668       -0.2643268631       -4.9944925999
 C         0.6879352101        1.2400430550       -4.5919551250
 O        -0.6654081668       -0.5664202394       -6.0917956129
 O         0.1136767902       -0.3943923525       -2.4127279139
 C         1.5956104924       -2.8273477518       -1.6705438965
 C         2.6551819430       -2.5965702654       -0.5807769624
 C         2.3771975253       -3.1412823332        0.8645869026
 C         1.8305759693       -2.0162568859        1.8418246811
 C         2.4111967221       -1.9025114613        3.3273766323
 O         3.7284638493       -2.0612259771       -0.8365699001
 O         0.8085710611       -1.3886222039        1.4143771266
 C         1.2499280607       -4.2175245304        0.9816501548
 C         3.6561234952       -3.6761052808        1.4191924412
 C         2.5726698907       -0.5388048817        3.8395432930
 C         3.4084082668       -0.2949472554        5.1747154846
 C         3.5356087888        1.0754068516        5.7614597736
 C         5.1073150560        1.6498800892        5.3982316444
 C         6.2328699288        1.3740512516        6.3897692453
 C         2.5154976242        2.1482044495        5.0749269463
 C         3.4048888678        0.8433059743        7.2900571518
 O         4.0769657521       -1.1681345229        5.6102612209
 O         5.2969083333        2.2455166930        4.3694316815
 C         7.0534802741        2.7106702016        6.4797457053
 C         7.8476521922        2.9455331110        7.8025301397
 C         9.1017774298        4.0083716328        7.8775356546
 C        10.4918837652        3.1785801827        7.8066611870
 C        11.1579177081        2.2891521673        8.8875098758
 O         7.5265883902        2.5282824093        8.9443867562
 O        11.0813694848        3.2399103765        6.7641744570
 C         8.9928457993        5.2996925944        6.8543305174
 C         9.1041389517        4.6323244524        9.2941522929
 H        -7.2918190974        6.8375143149       -4.6818924615
 H        -8.5114676003        6.6557148785       -6.0173515874
 H        -8.6605740991        7.8687058973       -4.7679157625
 H        -7.1083013980        4.1481844242       -2.3622558351
 H        -7.8758514677        2.6217160418       -2.8485307322
 H       -10.7335302393        4.0887237524       -3.4823357609
 H        -9.7074629833        2.7939853776       -2.9846119596
 H       -10.3071968456        2.8652883506       -4.5756554224
 H       -10.3906566263        4.3160869486       -6.2207744191
 H        -8.6961848028        5.1189456093       -6.3688177378
 H        -9.1328915906        3.2844940253       -6.4951385321
 H        -5.9278200198        1.6124691239       -3.5308661471
 H        -4.9053832690        2.9659157673       -3.7215687069
 H        -2.3740226932        0.5170361283        1.5195725402
 H        -3.8977263348        1.5318009896        1.5777200684
 H        -1.6836841416        2.8133833163       -2.1061578832
 H        -3.0371814341        3.6839704622       -2.7749257682
 H        -2.7583460773        2.0417674299       -3.3429621593
 H        -4.3858368498        3.8695539249        0.4092663764
 H        -2.6224658698        3.8752486363       -0.0465966057
 H        -4.0726741151        4.5123674830       -1.0814805803
 H        -5.4515562619       -0.0459697895        0.7366292385
 H        -4.7422986472       -0.5672956852        2.0503181926
 H        -3.7708295619       -2.5617543216       -2.5355149373
 H        -2.3620716129       -2.5616691591       -1.6448166411
 H        -5.9967978987       -4.4775894825        0.7060663723
 H        -6.3916421014       -2.8542621238        1.5574399961
 H        -4.9666434452       -3.9678701048        2.0402922190
 H        -5.6976059824       -1.4411387320       -1.6879970125
 H        -6.3914371970       -2.9512976995       -1.7253639966
 H        -6.9307823004       -1.8340687597       -0.6006544222
 H        -1.5432562242       -4.5730812907       -2.6163237653
 H        -2.9822424694       -5.5041036002       -2.3627567705
 H         0.1917272106       -4.2475605398       -7.2811235695
 H        -1.0728524718       -3.0361184872       -6.9310798902
 H        -0.7546709114       -7.1474834114       -4.8953324979
 H        -2.5563125355       -7.3094013634       -4.5888964468
 H        -1.3648116006       -6.4675985442       -3.4784560663
 H        -2.2802170954       -4.8961017970       -7.4793054876
 H        -2.6765200713       -6.5134356971       -6.9485930132
 H        -3.7115788794       -5.1283541465       -6.6729334385
 H         1.4321441544       -2.3406092110       -7.1285619615
 H         1.4477474058       -3.0006588047       -5.6163463862
 H         1.7485419014       -2.6144585179       -3.9124361410
 H         2.7160890260       -1.5844147686       -2.9927928953
 H         3.5045092271       -0.0849515827       -4.2732635922
 H         2.8036016850        0.4570243678       -5.8737793752
 H         2.7999047161       -1.4657408172       -5.1689686511
 H         0.4162702527        1.6696456855       -3.6638596987
 H         1.4112838355        1.8300706270       -5.1447231276
 H        -0.1869480013        1.3495693406       -5.1496861759
 H         0.6549308111       -2.7342194475       -1.1546848719
 H         1.7053132960       -3.8146020895       -1.8292755145
 H         1.8186625906       -2.4420695024        4.0574348122
 H         3.3673423299       -2.4200637636        3.3940484336
 H         0.1911640237       -3.8081722302        1.0554170031
 H         1.5294740132       -4.9345674647        1.7201634382
 H         1.1461089094       -4.7047825557       -0.0743526102
 H         4.4871614575       -2.9533695979        1.4777209788
 H         3.5324776885       -4.1523995853        2.3239270461
 H         3.9577338599       -4.4360006309        0.6898472088
 H         1.5425667867       -0.2577558626        4.1623314939
 H         2.8989180143        0.0719528083        3.0295984730
 H         5.8113491205        1.1286985382        7.2917188510
 H         6.8512318658        0.5365726901        6.0405405392
 H         1.4722896295        1.8890205680        5.2553549402
 H         2.6050626081        2.3781627671        4.0567729868
 H         2.5550051552        3.1193098353        5.6732303743
 H         3.9469066811       -0.0509088630        7.4948314660
 H         3.6229929023        1.7380074807        7.9269839827
 H         2.3536731383        0.7628242646        7.4177686793
 H         7.6299670706        2.8109988287        5.5657182804
 H         6.3139855247        3.4992198110        6.4305170805
 H        11.6911933951        1.5307107257        8.3043686007
 H        11.7783071640        2.8400080725        9.6118564224
 H        10.2188759444        1.9744867945        9.5103762629
 H         9.9355431109        5.7895802109        6.7036399229
 H         8.3319479742        5.9469601542        7.2823922487
 H         8.7676855437        4.8917216264        5.9162836885
 H        10.1253643886        4.7715136713        9.6127124065
 H         8.6292387925        5.6036468075        9.2566690274
 H         8.5971084405        3.9789082112        9.8673438433
 Na       -0.5392917026       -1.0322436979       -0.3736205103
