155

 C        -8.6556763283        7.1020617250       -4.5713348629
 C        -8.9365995616        5.7738946219       -3.7869634841
 C        -8.9130414543        4.4098777265       -4.5822587895
 C        -7.5410774908        3.8334178222       -4.0830430121
 C        -7.3628214572        3.0052991510       -2.7770515951
 C       -10.0267226568        3.4381819377       -4.2463859743
 C        -8.9442497632        4.5898591384       -6.3184053841
 O        -8.9811766958        5.7775204338       -2.5338025128
 O        -6.6106198026        4.0661092524       -4.8426134938
 C        -5.7603621087        3.0148275789       -2.5118176857
 C        -5.1578832652        2.1301626809       -1.4509913070
 C        -3.5092547535        2.4412284113       -1.3576535572
 C        -2.8800953815        1.5323003615       -0.2985525907
 C        -3.5963955866        1.2139438058        1.0539868548
 O        -5.8285106955        1.4406240865       -0.7448155990
 O        -1.7219469810        1.1350290170       -0.3441780302
 C        -2.7437590687        2.2550263650       -2.7050735562
 C        -3.1669051696        3.8953640057       -0.8767096838
 C        -4.3645110698       -0.1261498110        1.2789237781
 C        -3.7697689601       -1.4451021132        0.8014213515
 C        -4.6574291856       -2.6379506253        0.2336921769
 C        -3.7776052598       -3.7842498672       -0.4758102619
 C        -3.2638962472       -3.5566692082       -1.9347959131
 C        -5.4628495732       -3.0219236008        1.3970600485
 C        -5.5345129144       -2.0488556428       -0.9529611569
 O        -2.6176395815       -1.6682195987        1.0153336211
 O        -3.4311397942       -4.7362462123        0.1176805486
 C        -2.4240080015       -4.6072443019       -2.7684400537
 C        -2.8669570868       -4.3011793582       -4.2643307765
 C        -1.9430508859       -5.0626268047       -5.3262208584
 C        -0.7357692980       -4.0154140898       -5.4589745535
 C        -0.4754151319       -3.3870466981       -6.8157687183
 O        -3.8418343554       -3.6693886123       -4.5111835130
 O         0.0249058416       -3.8082329301       -4.5693516428
 C        -1.4138850501       -6.5212381028       -4.8553486941
 C        -2.6978816149       -5.0358756223       -6.6423356442
 C         0.6016892278       -2.2633276660       -6.5350160530
 C         0.0483343549       -1.3150716566       -5.5225672846
 C         1.0006523111       -0.3948824430       -4.5947130079
 C         1.0160226506       -1.1683609329       -3.1779392410
 C         1.9626292597       -2.3293745985       -2.7904376375
 C         2.4257248578       -0.3526682548       -5.3514284299
 C         0.2529669044        0.9429379709       -4.5011808121
 O        -1.1337337656       -1.2008781225       -5.4486207933
 O         0.0563370524       -0.7840395377       -2.5275708269
 C         1.5329452793       -3.0895535746       -1.5238115004
 C         2.3953164436       -2.7356844026       -0.3176372805
 C         1.9298005327       -3.3137498400        1.2047104611
 C         1.5648245607       -2.0517906988        1.9335611982
 C         2.2575780075       -1.9537714095        3.3042403669
 O         3.3935229717       -2.0994486854       -0.3627552966
 O         0.8221186104       -1.1526356503        1.5010280840
 C         0.8431376804       -4.3764357829        1.1037066266
 C         3.1758864461       -4.1609191967        1.7947946566
 C         2.2632865859       -0.6454051369        4.1081860110
 C         3.4917858033       -0.2070517377        5.0027300792
 C         3.6120440366        1.1801460186        5.5677827799
 C         5.1793135366        1.4740669930        5.2834552820
 C         6.1677853286        1.5228320119        6.4172629937
 C         2.6883438828        2.3399135434        5.1125468123
 C         3.5528122125        1.0179771923        7.1517733650
 O         4.2338684946       -1.0965671012        5.3018231586
 O         5.4577357861        1.9585893783        4.2469695337
 C         7.5416554580        2.3017974095        6.1245766804
 C         8.2203709984        2.7502870446        7.4369458379
 C         9.1784325993        3.9204401543        7.5690570072
 C        10.5583316177        3.1370916820        6.8791591821
 C        11.4967510398        2.6284555347        7.9380397167
 O         8.1313275516        1.9575937056        8.4456490802
 O        10.6760880503        2.9337682043        5.7332942849
 C         8.6338974413        5.1094845237        6.7103529075
 C         9.3886119960        4.3927844790        9.0349618252
 H        -7.8629807614        7.5671427115       -4.0597855726
 H        -8.1706201868        6.8541746032       -5.5604317901
 H        -9.4947626340        7.7430226587       -4.7799496864
 H        -7.8651272840        3.5117587180       -1.9864722721
 H        -7.6325519093        1.9625759285       -2.9735321759
 H       -10.8011122382        3.3456978913       -5.0567291538
 H       -10.5833626986        3.7411286552       -3.2687728631
 H        -9.6154054277        2.4656321019       -4.1104160572
 H        -8.7882209490        5.6860210981       -6.7391975068
 H        -8.0918586915        4.0830465636       -6.8012803974
 H        -9.8312977594        4.1940681649       -6.9024108159
 H        -5.0734033755        3.2244133452       -3.3925813075
 H        -5.5982458873        3.9903962210       -1.8576644757
 H        -2.7334114489        1.4224604603        1.7169485544
 H        -4.3406799030        2.0461732348        1.3240629324
 H        -1.7043725422        2.2387017155       -2.6141457761
 H        -2.9034548615        3.1004193216       -3.3587751062
 H        -3.2115490710        1.3744742317       -3.2542384162
 H        -3.5005576328        4.1900329915        0.1497991659
 H        -2.0850235239        3.9956390220       -0.7402629652
 H        -3.6116152542        4.4989359775       -1.6771770134
 H        -5.3500206969       -0.0995520629        0.7611364495
 H        -4.7096022463       -0.2331845752        2.2628202641
 H        -4.1401633654       -3.1565781649       -2.4735199617
 H        -2.6881861373       -2.6834388228       -1.8953470716
 H        -6.4595536510       -3.5035839108        1.2024475256
 H        -5.8213787179       -2.0662004325        1.8679915191
 H        -5.0579486798       -3.7986834070        2.0157525433
 H        -5.0396460740       -1.2970852680       -1.5169833163
 H        -5.8467982790       -2.6977649257       -1.7009980930
 H        -6.4506538521       -1.6014965088       -0.7654323524
 H        -1.4061158406       -4.5668817836       -2.7794208812
 H        -2.6279462641       -5.7369905509       -2.6304430252
 H        -0.0869670188       -4.1141555372       -7.4873414861
 H        -1.2158280845       -2.7335778454       -7.2474402895
 H        -1.2672780803       -7.0507097513       -5.8096354810
 H        -2.1735822421       -7.0517360924       -4.2512586046
 H        -0.5435148867       -6.3523299831       -4.2002996235
 H        -3.7753855665       -4.9188598827       -6.4947110582
 H        -2.5134404155       -4.2328247835       -7.3212222455
 H        -2.5783939238       -5.8622680177       -7.3148795381
 H         0.7868074795       -1.7466852226       -7.4513594541
 H         1.5494007058       -2.7594621373       -6.2601571819
 H         1.9225083042       -2.8092971632       -3.8067874553
 H         2.8804565508       -1.8632110568       -2.7308855448
 H         2.9288544951        0.6910433999       -5.2317580249
 H         2.1994002089       -0.4911437397       -6.4497934736
 H         3.0916156564       -1.2675748289       -5.0236711944
 H        -0.8653000902        0.8227906715       -4.7313403681
 H         0.3657207337        1.3640414285       -3.5503508876
 H         0.5731913348        1.6612567205       -5.2963980723
 H         0.5586954481       -2.7997824732       -1.2119601140
 H         1.6603198251       -4.1233973596       -1.6869959717
 H         2.0472492710       -2.8469864190        3.9290791299
 H         3.3275301199       -2.0525444130        2.9647686865
 H         0.3846663471       -4.2708673516        0.1221052168
 H         0.0811299475       -4.2762652232        1.9152733433
 H         1.2094501234       -5.3011182874        1.4270721106
 H         3.9882997371       -3.4451865733        1.8921866130
 H         3.0305552359       -4.5645272764        2.7375728819
 H         3.4508340265       -5.0850373042        1.2438194027
 H         1.4446533971       -0.8467008878        4.7721962525
 H         1.8726877440        0.1651800207        3.5462617228
 H         5.7183808047        1.9964458589        7.2340238177
 H         6.4122149499        0.5372334549        6.8394465633
 H         1.6579497248        2.5318154002        5.4641061877
 H         2.6501786967        2.2421346347        4.0588803997
 H         3.2933303880        3.2549731283        5.4978363851
 H         4.1692780763        0.1220097110        7.3571746868
 H         3.8875034429        2.0143257718        7.5989023818
 H         2.5400571482        0.7942111679        7.4816713302
 H         8.2961382827        1.6003864762        5.7487421845
 H         7.4347057645        3.1210503754        5.4878618152
 H        11.9446045326        3.3630369705        8.6424725173
 H        10.8531067032        1.9171175121        8.4242850932
 H        12.1818134627        2.0155400985        7.3590365738
 H         9.1683560203        6.0247967533        6.9948804176
 H         7.5811800997        5.2841318134        6.9920126152
 H         8.8261404935        4.8365654073        5.6579194466
 H        10.3750158268        4.8824939044        9.1214237524
 H         8.6201980475        5.1348877044        9.1891492918
 H         9.2583885170        3.5607438760        9.6504148542
 Na       -0.5993235806       -0.8383774921        0.1375249339
