155

 C        -9.8239527846        6.7283300012       -3.2220172545
 C        -9.6803377162        5.2872484459       -3.0762993265
 C        -8.6870159079        4.4852307950       -4.1573380071
 C        -7.2520825368        4.7179880301       -3.4921352089
 C        -6.8247117962        3.4896111824       -2.6176775222
 C        -9.2673431727        3.1238350102       -4.1092513787
 C        -8.6734288645        5.1244650684       -5.5219837344
 O       -10.1300570294        4.5872324001       -2.2667788771
 O        -6.6220834719        5.6830450854       -3.6588992088
 C        -5.8105693855        3.7887117072       -1.4239536461
 C        -4.6104056042        2.8318135622       -1.6444779955
 C        -2.9859310013        3.3013034087       -1.1993040832
 C        -2.6754393541        1.9894383597       -0.3215333707
 C        -3.6413118591        1.5279638139        0.7510117566
 O        -4.7086442490        1.8135829581       -2.2857227267
 O        -1.5728380518        1.4798384824       -0.5377711293
 C        -2.2124726244        3.0924500392       -2.5396148703
 C        -2.9697745016        4.5297748670       -0.3463317887
 C        -4.5686078229        0.3012757137        0.4046981144
 C        -3.9076570374       -1.0950890694        0.5417143404
 C        -4.8324954030       -2.4764916288        0.4738902553
 C        -4.3413874423       -3.0807761979       -0.8736858422
 C        -4.8198986499       -2.2978729394       -2.0643492467
 C        -4.3276468893       -3.3177921977        1.6284608137
 C        -6.3016051857       -2.0856084997        0.6132946845
 O        -2.7209948746       -1.1955303835        0.7029045893
 O        -3.3740055038       -3.8868358015       -0.8042249256
 C        -3.8056188817       -2.5287478734       -3.1908214448
 C        -4.0743140503       -3.7813138498       -3.9828500826
 C        -2.9686165987       -4.8354502559       -4.4605400327
 C        -1.5579678255       -4.1248698365       -4.9435207748
 C        -1.5758979842       -2.8768662051       -5.8103189724
 O        -5.2466154106       -3.9182534009       -4.4325291039
 O        -0.4999810984       -4.4682532298       -4.4641371815
 C        -2.5683512049       -5.6205084932       -3.0977611676
 C        -3.3665907923       -5.7130995902       -5.6635156611
 C        -0.1758383860       -2.2863888746       -5.7686707129
 C        -0.1508378737       -1.2861181271       -4.6059554140
 C         1.2067237462       -1.2389703161       -3.6749679676
 C         0.7769258329       -2.2020314418       -2.4038069326
 C         1.0794610224       -3.6612142163       -2.2235844359
 C         2.4906020349       -1.7897164171       -4.4110600167
 C         1.4410534637        0.2678044587       -3.4778896108
 O        -1.1274997078       -0.6347053417       -4.2027114755
 O        -0.1828134302       -1.7208337464       -1.7921320223
 C         0.9578823555       -4.0622337170       -0.7524846699
 C         2.0918427951       -3.2684797927        0.0472833161
 C         2.1571412152       -3.3328258542        1.6396756840
 C         2.3766601881       -1.8181378360        2.0568312148
 C         3.4074550827       -1.1552689877        3.0720921193
 O         2.8448490902       -2.5363841627       -0.4674563692
 O         1.6147204450       -0.9262517434        1.7495883215
 C         0.7556595210       -3.6143103459        2.2586012913
 C         3.2255711252       -4.2428067176        2.2182548354
 C         2.9524819397        0.0032138286        3.9726670917
 C         3.6433308482       -0.1935143778        5.3411612607
 C         4.3302979974        1.1253081873        5.9908678577
 C         5.5911525353        1.5309083944        4.9913239016
 C         6.9206391389        1.2277768480        5.6578830195
 C         3.2341623700        2.2269168874        5.8071577926
 C         4.7830034207        1.0165814085        7.4935757979
 O         3.8823289102       -1.2720928402        5.8487135415
 O         5.3756280727        2.1625023981        3.9424315857
 C         8.1545125236        1.0956955716        4.5663693026
 C         9.2835053701        1.3006042911        5.4846459801
 C        10.0696986387        2.6468446242        5.3938080245
 C        10.2298881651        2.9867312128        3.8460268423
 C        11.6727564109        3.1635102776        2.9807285304
 O         9.5646738363        0.4622983973        6.3406812827
 O         9.2921367938        3.4458190526        3.3392548244
 C         9.0948961580        3.7244047676        5.7965341795
 C        11.3157194468        2.6166303881        6.2365519195
 H        -8.7387256224        7.0198051037       -3.3825230429
 H       -10.3799612109        6.8124952410       -4.0835076465
 H       -10.3770373062        7.3206477682       -2.4158669473
 H        -7.6948028241        2.8903030591       -2.1899727685
 H        -6.4186914050        2.7419106790       -3.3051350214
 H       -10.0332008214        2.9074452046       -4.8420170223
 H        -9.6762207913        2.9393826576       -3.1464607952
 H        -8.5046274290        2.3424722916       -4.4473885851
 H        -7.7005867215        5.0583896495       -6.0209021774
 H        -9.2875693216        4.5980975191       -6.2214040112
 H        -8.9369109354        6.1698455601       -5.3874630677
 H        -5.5385072319        4.8073659149       -1.3498003847
 H        -6.1865479230        3.4817287342       -0.3935995863
 H        -3.2404128437        1.3382549970        1.7070146801
 H        -4.4984347331        2.1624055466        0.9350195509
 H        -1.2098344523        3.3227987282       -2.6547617600
 H        -2.5913467521        3.8341664091       -3.2707365176
 H        -2.5574530591        2.1157511729       -2.9421859738
 H        -3.6143512160        4.4569761472        0.5213406685
 H        -2.0198701590        4.8488328076        0.0776784562
 H        -3.3311811150        5.2623198986       -1.0873959730
 H        -5.1753180936        0.5086006509       -0.4921575812
 H        -5.2265142673        0.3005049226        1.2634729315
 H        -5.7859262256       -2.6573110819       -2.5108613836
 H        -4.9345591655       -1.1939577952       -1.7724599755
 H        -5.0213092754       -4.0089513722        2.0230499822
 H        -4.1335896130       -2.6993487162        2.4342806865
 H        -3.5897268742       -3.9271784135        1.2203499474
 H        -6.5250722547       -1.3442834282       -0.1782023074
 H        -7.0394796866       -2.9846328933        0.5615414274
 H        -6.6090572606       -1.6450817769        1.5848566222
 H        -4.0095323629       -1.6036792890       -3.7680109449
 H        -2.8648987092       -2.3942297671       -2.9180957619
 H        -1.9947331459       -2.8925340463       -6.8442167675
 H        -2.3071172592       -2.2636688548       -5.3121165859
 H        -2.1746760191       -6.6192043267       -3.3186889735
 H        -3.4122578331       -5.6081070870       -2.4118653372
 H        -1.8587644982       -4.9401436155       -2.6006472855
 H        -2.9576286382       -6.7045098975       -5.4620161281
 H        -4.4546845617       -5.6685846074       -5.6528680824
 H        -3.0261645141       -5.2972974225       -6.6287393528
 H         0.0791478138       -1.8468036065       -6.6520228835
 H         0.6001604641       -3.0912967768       -5.3684953996
 H         0.4692711890       -4.2825437350       -2.7105700209
 H         2.0695432828       -4.0096503033       -2.5032538279
 H         2.3442565545       -2.9064490653       -4.2155826288
 H         3.1598462128       -1.4140348213       -3.6017910387
 H         2.4078010932       -1.5837702311       -5.4830318516
 H         2.3173629726        0.5493257723       -4.0510863560
 H         0.5573159082        0.8397639976       -3.6970437818
 H         1.7412760508        0.6078552689       -2.4432436906
 H        -0.0514283840       -4.0332047938       -0.4455387238
 H         1.1818903243       -5.2196782750       -0.3909587786
 H         3.9568417216       -1.8924271394        3.7560471605
 H         4.1885352200       -0.7282224964        2.3715548938
 H         0.7471571529       -3.4763197311        3.3521625402
 H         0.4029281656       -4.6334755611        1.9557980597
 H        -0.0679098814       -3.0208832363        1.7718009345
 H         4.1987265699       -3.9990301187        1.8684768588
 H         3.4761988006       -4.2218389326        3.2835797256
 H         3.0255583658       -5.3502600253        1.9895008730
 H         1.8889745561       -0.1357765562        4.1158006777
 H         3.1651587199        0.9146733312        3.5168924244
 H         7.0938040755        2.0689387143        6.2158852668
 H         6.9791326927        0.3296730306        6.3401954048
 H         2.3657437768        1.8180811901        6.2358927590
 H         2.9981270676        2.3517946645        4.7877676263
 H         3.7145184072        3.1429755220        6.1980810461
 H         4.8280517683       -0.0561974246        7.7726661012
 H         5.7682112265        1.4249102712        7.6665045182
 H         4.1433473694        1.4069741989        8.1905103309
 H         8.1418252741        0.1610224299        4.0544052394
 H         7.9918568050        1.9480283020        3.9247603309
 H        12.4107592883        2.4907228311        3.3686102649
 H        11.3585616582        3.2936872697        1.9715017766
 H        11.9456575190        4.0961492800        3.3482395472
 H         9.3488367749        4.5870711643        5.2850237093
 H         8.9605153649        3.9901614557        6.8561005777
 H         8.1074632257        3.5121122207        5.5429234464
 H        12.2657731019        2.9649237071        5.7473623097
 H        11.2374580613        3.2311601488        7.1283324349
 H        11.6975504379        1.6152590086        6.6579536797
 Na       -0.6133711623       -0.6447754285        0.2706003126
