155

 C         1.2810669256       -0.2108003379       10.6750055258
 C         1.7159391141        1.0748303169        9.8669121515
 C         3.2466668988        1.5444403165        9.9623685461
 C         3.9851963367        0.2062983452        9.3251311992
 C         4.4630271316        0.2416367944        7.8325565778
 C         3.3801492437        2.8276622304        9.2958341627
 C         3.7346050413        1.6165085011       11.4763263560
 O         0.9651481907        1.7209224807        9.1780724575
 O         3.8862150399       -0.8274886338        9.9448662934
 C         3.3610158003        0.3465237532        6.7253453651
 C         3.8819810782        0.6589648754        5.2899656532
 C         3.3668453894       -0.1760457536        4.0525668114
 C         1.7642997536        0.0746301438        3.8412326684
 C         1.0034008350       -0.5108728882        2.5972282173
 O         4.6584503347        1.5495827454        5.0435155051
 O         1.0978619669        0.6848029774        4.7004118969
 C         4.1988996735        0.1370238610        2.8111227377
 C         3.3480048259       -1.6579784409        4.2969976429
 C         0.0466749740       -1.6455999391        2.9605207708
 C        -0.7227429575       -2.0652306016        1.6438158261
 C        -1.7592985649       -3.1972453175        1.7806964079
 C        -3.1256480365       -2.3461648717        1.9468450193
 C        -4.1107216931       -2.7198686998        2.9873621378
 C        -1.9306441691       -3.8366188435        0.3733569284
 C        -1.6249467570       -4.1482516976        2.9798427101
 O        -0.4379294617       -1.5787381813        0.5457956690
 O        -3.4169189980       -1.5311061866        1.0454627908
 C        -4.6841733420       -1.4821160207        3.5725999342
 C        -3.4807009194       -0.7583535528        4.2507365299
 C        -3.5847328472        0.7929392889        4.4900290821
 C        -3.7123556864        1.5308019200        3.0175187834
 C        -2.9993262989        2.9396477499        2.8284251752
 O        -2.4706100316       -1.3560649539        4.5903447618
 O        -4.4790961362        1.0510483498        2.1968457310
 C        -5.0044189673        0.8827902848        5.1922013196
 C        -2.4530579074        1.4753461727        5.3710073017
 C        -2.7408489788        3.3215598942        1.3452194448
 C        -1.9304050325        2.3560900625        0.3034352863
 C        -1.3650436243        2.9512062816       -1.0153288018
 C        -1.2767866147        1.8329205420       -2.0191957413
 C        -2.4067737203        1.7473000681       -3.0918143443
 C        -2.1557767118        4.1572003686       -1.5286674577
 C        -0.0059684589        3.5804693220       -0.5818848985
 O        -1.6755792853        1.1759351306        0.6713970128
 O        -0.3080677267        1.0856743512       -1.9424414235
 C        -2.3197903223        0.6291599645       -4.1285311001
 C        -3.1823099909       -0.5912744864       -3.8361519506
 C        -3.9544832618       -1.1953613581       -5.0995735717
 C        -2.8465182448       -1.6353288065       -6.1764564494
 C        -3.3164659290       -2.4496868579       -7.4171150462
 O        -3.2329412821       -1.1208393648       -2.7236327577
 O        -1.7181991299       -1.1151264742       -6.0743777923
 C        -5.0084488955       -2.3124414728       -4.6234684740
 C        -4.7266485900       -0.0712085237       -5.8771339765
 C        -2.3333143440       -2.5662350317       -8.5519744980
 C        -1.0758192532       -3.4565089189       -8.0631466432
 C         0.3466644465       -2.9675118678       -8.6244323128
 C         0.4771935389       -1.4960917043       -8.0903804867
 C         1.5835577100       -1.0172354701       -7.1427754393
 C         1.4871674575       -3.8730486147       -8.0943098504
 C         0.2119856342       -2.8519606058      -10.2017272025
 O        -1.2748935068       -4.4489375806       -7.4065203259
 O        -0.2364006214       -0.6506287892       -8.5104288089
 C         1.6754659866        0.5535321319       -7.2624085690
 C         3.0320335813        1.1928404444       -6.9394953859
 C         3.1456724761        2.3161225904       -5.8453067023
 C         2.0939773508        3.3354945179       -6.2179478953
 C         2.2842862702        4.3069786944       -7.3766718565
 O         4.0296586883        0.8596587905       -7.4915540139
 O         0.9553218088        3.3293102218       -5.6595354965
 C         2.7184335970        1.6272333274       -4.4276502877
 C         4.6245528305        2.8502683815       -5.8914243981
 H         0.8462899824       -0.9816763042       10.1239761308
 H         2.1869787442       -0.7383786255       11.1718785608
 H         0.5303329669        0.1268620477       11.4289279196
 H         5.0520939596        1.1494109191        7.8862037025
 H         5.1892026923       -0.5145822596        7.7837699515
 H         2.8362157497        3.6389410546        9.7877319334
 H         2.9266479585        2.7915135674        8.3376804805
 H         4.3921527598        3.2891370095        9.1640821141
 H         3.9090088401        0.5428179472       11.9518896567
 H         4.7185469450        1.9816100528       11.3830546359
 H         3.1238028131        2.2991174787       12.0128205632
 H         2.8793377392       -0.6781869656        6.8244727362
 H         2.4781361024        1.1139820607        6.8923116155
 H         0.3660336730        0.3025656812        2.1667785396
 H         1.7848525504       -0.7164807613        1.7841424880
 H         3.6661551848        0.9184244212        2.2335278679
 H         4.4758605376       -0.6142659199        2.0962009741
 H         5.1549029317        0.7051087766        2.9468084630
 H         2.7933531562       -1.9321429376        5.1264650777
 H         2.8589023400       -2.0865706140        3.4630838509
 H         4.2898531164       -2.1156283735        4.5265785249
 H        -0.5778246063       -1.4158182800        3.8699123117
 H         0.5466923433       -2.5678744904        3.2861484142
 H        -4.9614943832       -3.4486094927        2.5963372307
 H        -3.5878278687       -3.2526364544        3.8033289456
 H        -2.0966128813       -3.0055465434       -0.3285944461
 H        -2.7349821447       -4.5042716514        0.2958652948
 H        -1.1474548767       -4.6381695004        0.1554874653
 H        -0.7450236796       -4.7675128986        3.1094766364
 H        -1.5733693442       -3.5618811862        3.9083348541
 H        -2.4636128353       -4.8805503628        3.0597601751
 H        -5.1391485761       -0.8409763027        2.8301817687
 H        -5.3597254574       -1.8334475465        4.3547374839
 H        -3.6708902958        3.6697879280        3.1230600312
 H        -2.1056737920        2.8587073048        3.4916235096
 H        -4.7687666078        1.3725303083        6.1597034661
 H        -5.5097772870        0.0207608538        5.4511329952
 H        -5.7075531766        1.4637728857        4.6095801463
 H        -2.7904693122        2.4408236381        5.6098870664
 H        -2.4264578548        0.8045939785        6.2096803294
 H        -1.4376622258        1.3770776555        4.9117486984
 H        -2.4749622703        4.3658678545        1.3684703549
 H        -3.7929654358        3.4183235077        0.9932666731
 H        -3.3350893323        1.7377814920       -2.4762324098
 H        -2.1706271468        2.6333548823       -3.7212244175
 H        -2.0962380511        4.9086661817       -0.7412839679
 H        -3.1409307468        3.9288147952       -1.7540472117
 H        -1.6261880655        4.5130756736       -2.3376807455
 H         0.7894616172        2.8996165795       -0.5688856756
 H         0.3337101302        4.2887185899       -1.3280302375
 H        -0.0768102611        4.1169237018        0.4209740846
 H        -2.4198360316        1.0856470378       -5.0993914029
 H        -1.2736944823        0.3838306043       -4.3382753414
 H        -3.3775245802       -3.5256118547       -7.2109666648
 H        -4.4184840979       -2.2905347014       -7.6171267831
 H        -4.5949642166       -3.0863071108       -3.9058966182
 H        -5.3489709560       -2.7853175808       -5.5474963359
 H        -5.9054898450       -1.8127764402       -4.2593638226
 H        -5.2668955590        0.5564302221       -5.0947861363
 H        -3.9313881649        0.4695151283       -6.3898748814
 H        -5.4427885526       -0.5642920790       -6.5743871755
 H        -1.8958485093       -1.5600905483       -8.8553523596
 H        -2.7497279524       -2.9228109506       -9.5092110855
 H         1.2869012205       -1.2688902707       -6.1407764637
 H         2.4275367012       -1.4623651661       -7.5503943448
 H         2.4086440090       -3.2816248281       -8.2213328424
 H         1.4583127826       -4.8650366772       -8.5124869107
 H         1.2599428110       -3.8862928766       -7.0245971280
 H         1.0099900320       -3.4623144159      -10.7008338637
 H        -0.7453623760       -3.2758310214      -10.5659215926
 H         0.2334093964       -1.8140534189      -10.5341018613
 H         1.4951149335        0.6644940702       -8.3212481163
 H         0.7991970769        0.9321584274       -6.7037570889
 H         2.8372245264        3.9084380576       -8.2338641133
 H         1.3271012618        4.6441721376       -7.7958629632
 H         2.7772828545        5.2334652207       -7.1489894002
 H         3.2953954548        2.0322649850       -3.5757783645
 H         2.7464916039        0.5651373946       -4.2357574013
 H         1.6789054548        2.0200761649       -4.2382913170
 H         4.9892240426        3.3645244598       -5.0268595983
 H         5.1788018514        2.0175792922       -6.1884625216
 H         4.8506127414        3.5623014340       -6.6732387716
 Na       -1.8782792619       -0.6093922778       -0.8407548182
