155

 C         7.2582769277       -6.0360018666        5.4395634296
 C         6.1591922147       -6.1940983012        6.5372260657
 C         6.2260623181       -5.0501185177        7.7471010145
 C         6.2934986142       -3.5312552222        7.2333532040
 C         5.0912667777       -2.9272254825        6.3901294567
 C         4.9528764638       -5.1591167699        8.6089824484
 C         7.5168114541       -5.4361336650        8.5191111712
 O         5.4706070470       -7.1985677346        6.6666514041
 O         7.3676109794       -2.9235549540        7.3126325771
 C         5.0387351755       -1.4275300315        6.1979865444
 C         3.8423405302       -0.9621830718        5.3142649053
 C         3.6691700189        0.5093794158        4.8844380372
 C         2.1596734224        0.7292895839        4.5762534638
 C         1.5856842302       -0.0466262808        3.3847815318
 O         3.0844107020       -1.8166924371        4.9211171390
 O         1.3697208627        1.3050498387        5.3174329098
 C         3.9941198005        1.5100252602        5.9892498562
 C         4.6385637507        0.5585864686        3.6705988852
 C         0.0730640409        0.1749525722        3.3241439355
 C        -0.4495962727        0.4213163187        1.8666106458
 C        -0.2772160864        1.7311143814        1.0681649660
 C         0.6924080499        1.5192282619       -0.2120824494
 C         2.0381823827        2.2144897713       -0.2785942369
 C        -1.6125202214        2.1798858112        0.4158702160
 C         0.1326998320        2.9344475579        1.9607285190
 O        -0.8903412721       -0.5151611960        1.2340104993
 O         0.3800120349        0.7360488534       -1.0601200822
 C         2.9447095505        1.4222768935       -1.2207530776
 C         3.8672854524        0.3156559859       -0.6410121130
 C         4.9432239574       -0.2751099336       -1.4721552979
 C         4.0011570540       -1.2978213569       -2.4306808545
 C         3.2912286689       -2.2871347808       -1.4796520538
 O         3.7669502534       -0.0145734592        0.5178980944
 O         3.8477294820       -1.0280025342       -3.6146739461
 C         5.6721601447        0.6205993900       -2.4662643505
 C         5.9786489006       -0.9678887500       -0.5451502618
 C         2.6366917756       -3.4776941334       -2.3599789714
 C         1.0774123732       -3.7229687276       -2.0214371964
 C         0.2383062251       -4.7659104516       -2.7997258220
 C        -1.1627062724       -3.9395056289       -3.1904729882
 C        -1.5747366175       -3.6461693051       -4.7239769688
 C         1.0812298988       -5.3523935928       -3.9156815516
 C        -0.2893832915       -5.7928980684       -1.7819832392
 O         0.6263675548       -3.1167501190       -1.0062189154
 O        -1.9254422576       -3.6565953107       -2.2961202285
 C        -2.6972893750       -2.5339675158       -4.7815067070
 C        -2.1689583373       -1.2758646525       -4.1701395880
 C        -3.0423437022       -0.0048833901       -4.0662135204
 C        -3.8477548967       -0.2152548099       -2.7782525280
 C        -5.3008845797        0.1990582421       -2.6649252365
 O        -1.0266292520       -1.2449881399       -3.7170606716
 O        -3.3571005843       -0.6899925998       -1.7728900211
 C        -2.1189244035        1.1515883292       -3.8217765295
 C        -4.0163973776        0.1901371038       -5.1698983721
 C        -5.3778511491        1.6012032273       -2.0846342427
 C        -6.6164113981        1.8692300229       -1.1504584415
 C        -6.5817518700        3.2032228604       -0.3501712009
 C        -5.4621003883        4.2369095811       -1.0281901901
 C        -6.1391063951        5.2233671951       -2.1004507640
 C        -7.9552080910        3.8468030997       -0.1218295263
 C        -6.0434397144        2.6655747980        0.9777461166
 O        -7.4416703304        1.0196630946       -0.9846640558
 O        -4.2967295989        4.0787851628       -0.7879219631
 C        -4.9892951295        5.6409423994       -3.1127888732
 C        -5.4841601429        5.3037886176       -4.4933443936
 C        -6.3165148683        6.2474088935       -5.3996617269
 C        -7.9022076375        5.9058348258       -5.1690997961
 C        -8.8821800020        5.6986666239       -6.3421395592
 O        -5.1684855760        4.1678314451       -4.9292184479
 O        -8.2615847977        5.9197754959       -4.0151737613
 C        -6.4119396058        7.8108427953       -5.1920536413
 C        -5.8013111430        5.9589283140       -6.8417186940
 H         6.8135668055       -5.7620785553        4.4661511991
 H         8.0176408298       -5.3001868245        5.7558578208
 H         7.8776032747       -6.9256039640        5.2613837846
 H         5.4402465487       -3.2947765755        5.4023409569
 H         4.1178022630       -3.3658078365        6.4734373841
 H         4.0624868279       -5.1368686235        7.9343694172
 H         4.9850179345       -4.3846548035        9.3115384883
 H         4.9343567108       -6.1461764620        9.0313244632
 H         8.3710490629       -5.1510194923        7.8270558256
 H         7.4759869353       -4.7755599916        9.3774610150
 H         7.3206012135       -6.4557072529        8.7399749056
 H         4.9820247102       -0.8730032459        7.1757505340
 H         5.8904286342       -1.0064796460        5.6472249028
 H         2.1690462642        0.2662250636        2.4781760806
 H         1.7383122474       -1.0926991972        3.5059805440
 H         3.0634001260        1.7853382729        6.5534359280
 H         4.3406224901        2.5486899099        5.6925535560
 H         4.6137706597        1.0618907349        6.7296853385
 H         5.7006491671        0.5437725867        3.9853245000
 H         4.5332359395       -0.1816205760        2.8780495627
 H         4.5577429484        1.5383692949        3.1213133257
 H        -0.2938048266        1.0016984671        3.9793045189
 H        -0.3543352901       -0.8301635627        3.6048221544
 H         1.9207979098        3.2550261782       -0.7475044938
 H         2.4601012815        2.3776778225        0.6901167738
 H        -2.0565843747        1.4611498703       -0.1953054976
 H        -1.4694571431        3.0425321570       -0.1728958519
 H        -2.3556778230        2.4760446286        1.1188178757
 H        -0.4324948385        2.8821507607        2.8979278236
 H         1.1690902803        2.9993370733        2.2586183901
 H        -0.2282386562        3.9240681256        1.6334794370
 H         2.3951021015        1.1788626577       -2.1134191198
 H         3.6879566408        2.1048269931       -1.5618315939
 H         4.0517365339       -2.6504642571       -0.7854803296
 H         2.5541041441       -1.7240969621       -0.9351603396
 H         5.0712732796        1.0673482148       -3.2001080216
 H         6.4485836289        0.0183722723       -2.9033751618
 H         6.2115058162        1.3237195745       -1.8125785343
 H         6.7471735967       -0.2788724159       -0.3000998281
 H         5.6169709526       -1.3328462367        0.4276115135
 H         6.5110677541       -1.8375565455       -1.0314243948
 H         3.2116212225       -4.4367065510       -2.1325629829
 H         2.7301043856       -3.2121898335       -3.4358715842
 H        -0.7096671667       -3.3716031779       -5.3584845824
 H        -1.9402038667       -4.6186855433       -5.0459139722
 H         1.5008928221       -4.5290791320       -4.5066782341
 H         0.4665666156       -5.9999192696       -4.5247523294
 H         1.9246592364       -5.9027687952       -3.4008916840
 H        -1.0815607095       -6.4240431865       -2.1272880064
 H         0.5250357617       -6.4535660015       -1.4126897821
 H        -0.7108628768       -5.2662232922       -0.9010241177
 H        -3.1330535289       -2.2834141796       -5.7508146130
 H        -3.4753791773       -2.9042303802       -4.1364871777
 H        -5.8391028279        0.1682965343       -3.6031790916
 H        -5.8863501776       -0.4119564378       -1.9842615813
 H        -1.4070751057        1.0423239687       -2.9934436251
 H        -2.6008441449        2.1155912497       -3.5927469343
 H        -1.4668630625        1.4019291773       -4.6392696302
 H        -4.5327738255        1.1471840142       -5.2332622562
 H        -3.5400353469        0.0507692085       -6.1788936442
 H        -4.8159125776       -0.4860297789       -5.1538494000
 H        -5.4322652264        2.2867411169       -2.8701380430
 H        -4.4888280019        1.9712829163       -1.4470226166
 H        -6.7738696492        4.5435212171       -2.6178620481
 H        -6.7109609810        6.1000503052       -1.7411302474
 H        -8.5840741578        3.2085130217        0.4982838798
 H        -8.3378543772        3.9205817662       -1.1297398256
 H        -7.7869024676        4.8737142447        0.2027895802
 H        -5.5437741888        3.4020840913        1.5913036283
 H        -6.9473675969        2.3132041434        1.5538281454
 H        -5.6877726495        1.7184946183        0.8566767276
 H        -4.8300160373        6.7272570343       -2.9654310975
 H        -4.1437393964        4.9635424969       -2.8659067229
 H        -9.0135148268        4.6666170552       -6.6004144229
 H        -9.7259132425        6.2579253644       -6.0128930417
 H        -8.4091106323        6.3023072636       -7.0959647493
 H        -7.1716872455        8.0937463815       -5.9197065527
 H        -5.5060030663        8.2601392764       -5.4701475071
 H        -6.7551230169        8.1524686810       -4.2190674907
 H        -6.2696738882        6.5911704961       -7.6017192760
 H        -4.6935144303        6.0439450226       -6.8287558035
 H        -5.9194187969        4.9229266006       -7.1878631855
 Na       -1.1191827516       -1.3558997932       -1.1197894843
