155

 C         7.4118088358       -6.0122539880        5.4144589348
 C         6.3181780429       -5.9843939650        6.5185850471
 C         6.4033238762       -5.0199167360        7.7124177472
 C         6.5704784583       -3.5321723752        7.0339825646
 C         5.2579351428       -2.8724956518        6.4330336800
 C         5.0281592295       -5.1831314580        8.6735877503
 C         7.6563196719       -5.3339074982        8.5635770813
 O         5.2347038804       -6.5178981343        6.3557395854
 O         7.6807630197       -3.0314374538        7.0135137850
 C         5.2477766033       -1.3774456928        6.2237388132
 C         4.0869949785       -0.9648889831        5.3185031034
 C         3.9435522212        0.4449971532        4.8541108993
 C         2.3674100639        0.7599249735        4.5824957291
 C         1.6977183658       -0.0615509907        3.4674571130
 O         3.3832067561       -1.8399122926        4.9140843964
 O         1.6639663391        1.4167699027        5.3562102216
 C         4.4332808830        1.4868946566        5.8553674080
 C         4.6823435870        0.5147540233        3.5445530629
 C         0.2121218772        0.0709869905        3.3033865809
 C        -0.3076672356        0.2284553601        1.8462145304
 C        -0.2285327974        1.6291609065        1.0223926800
 C         0.6203254598        1.3913038205       -0.3158324704
 C         1.9735835373        2.0767727823       -0.3974976116
 C        -1.6958841389        2.0709806841        0.5662322175
 C         0.1868956024        2.8388917517        1.9047671247
 O        -0.7852306709       -0.7786739318        1.2886157715
 O         0.2929626562        0.5740517417       -1.2019304937
 C         3.0344990373        1.4356701527       -1.3501466005
 C         3.8810719865        0.2837252155       -0.7211574787
 C         4.8158943257       -0.5823687372       -1.6007113466
 C         4.1998002552       -1.7181282194       -2.4730202451
 C         3.3267215996       -2.7863251519       -1.6461182838
 O         3.7547235980        0.1321703416        0.4674138457
 O         4.1693616279       -1.6069619808       -3.6807607045
 C         5.6614359570        0.4156031419       -2.5643248327
 C         5.7940344066       -1.2072320104       -0.5074788778
 C         2.2068134244       -3.4234029238       -2.6439962495
 C         0.8359148469       -3.6942434821       -2.0338531000
 C        -0.1346556695       -4.6747840726       -2.7078011520
 C        -1.3760037317       -3.8614431341       -2.9923469700
 C        -1.9192210679       -3.7582678944       -4.4680059495
 C         0.5627291558       -5.3722782338       -3.9636013685
 C        -0.3828712878       -5.7355045282       -1.6487268341
 O         0.4747627206       -2.9892800625       -1.0819559042
 O        -1.8872920772       -3.2203989960       -2.1123256380
 C        -2.7815466562       -2.4675394682       -4.6263003435
 C        -2.1762936890       -1.2310359932       -4.0726643458
 C        -3.2502773205       -0.0449483384       -3.9171662839
 C        -4.2209769260       -0.3981141008       -2.7570734422
 C        -5.6958030332        0.0779480431       -2.6542049841
 O        -0.9893065532       -1.0610022488       -3.7652378225
 O        -3.7357394202       -0.9685195868       -1.8007311151
 C        -2.5097489409        1.3166548769       -3.5546328985
 C        -4.0415420000        0.0445935809       -5.2702221570
 C        -5.6520029196        1.5660426970       -2.4060851239
 C        -6.5809332040        2.0332264084       -1.2085337695
 C        -6.1972336776        3.3059502037       -0.2816640620
 C        -5.3420339210        4.3256177685       -1.0705828658
 C        -5.8760456795        5.4841260617       -1.8538464325
 C        -7.7446461758        4.0153258948        0.0861024650
 C        -5.5598664375        2.8106131133        1.0895327240
 O        -7.5583387581        1.4145192712       -0.9400582094
 O        -4.1594102266        4.2226045654       -0.9804573876
 C        -5.0089710103        5.6265980220       -3.1500641994
 C        -5.7488929014        5.2793587430       -4.4202314735
 C        -6.3903202226        6.1556996064       -5.3483186169
 C        -7.9151852739        6.1507834980       -5.0732926452
 C        -8.9760694555        6.3870965155       -6.0208927904
 O        -5.7186266708        4.0381072002       -4.6017314609
 O        -8.2781514636        5.7047697682       -3.9627897168
 C        -5.7170618955        7.6088680190       -5.3467829594
 C        -6.1882263805        5.7056903953       -6.7969272807
 H         7.3583122939       -5.0293044274        4.9101389540
 H         8.5151780470       -6.2364973540        5.6170992312
 H         7.1448171425       -6.8147706459        4.6760738846
 H         4.9386010388       -3.4060446711        5.5234874506
 H         4.5304504653       -3.1719121542        7.1433285259
 H         4.2315920011       -5.0172381167        7.9359975433
 H         4.9713991943       -4.4105796669        9.4384338889
 H         5.0459825610       -6.2606750120        9.0788045371
 H         8.4241505057       -5.2474208084        7.8017988440
 H         7.7434013975       -4.5730011639        9.3392311904
 H         7.3320417124       -6.3019355479        9.0397021815
 H         5.0990788159       -0.8640582780        7.1756843196
 H         6.2508665674       -1.0853886232        5.9962017565
 H         2.2908982312        0.1205466317        2.5451723012
 H         1.8819000159       -1.0703682456        3.6355925508
 H         5.2562984644        1.1654849953        6.5114062608
 H         3.7317107709        1.7762530455        6.6643512655
 H         4.6658693554        2.4078231670        5.3535410987
 H         5.7944813913        0.4286145094        3.6011713025
 H         4.4084240652       -0.1969273438        2.8095487510
 H         4.4974502375        1.4929557476        3.0342185491
 H        -0.1379068882        0.8036921738        4.0305213634
 H        -0.1923303613       -0.9424400154        3.4835774280
 H         1.8145463661        3.1392976049       -0.7035342247
 H         2.3703143639        2.1605874997        0.5488946741
 H        -2.2009269321        1.4468911131       -0.1574845997
 H        -1.6986787217        3.0875051133        0.1436412391
 H        -2.3042665162        2.1866163186        1.4145930362
 H        -0.2424752742        2.7829422404        2.8908839731
 H         1.3032167913        2.8525651577        1.8999824617
 H        -0.3673847963        3.7940368613        1.6275695202
 H         2.6424775568        1.1365341226       -2.3071034522
 H         3.7906828426        2.1629985302       -1.5743408662
 H         4.0366050095       -3.5585119054       -1.4079304662
 H         2.8996467245       -2.3311898127       -0.7935313134
 H         5.1089343162        0.5911406605       -3.4749854136
 H         6.5221643580       -0.1109157953       -2.9132718382
 H         5.9371952339        1.3529597663       -2.0821895052
 H         6.2796891287       -0.6344008377        0.2635751768
 H         5.2396859569       -2.0099239955        0.0229508818
 H         6.6624919606       -1.7146546573       -1.0152407996
 H         2.6057748458       -4.2948720816       -3.1760076664
 H         2.1035021685       -2.6850643748       -3.4134261786
 H        -1.1076621515       -3.7525146969       -5.2259959935
 H        -2.5262850526       -4.6149929880       -4.7124017811
 H         0.7507260808       -4.7678369215       -4.8678830288
 H        -0.0253598918       -6.2057519682       -4.1405535208
 H         1.5915930605       -5.7472412049       -3.6457905051
 H        -1.2284448925       -6.3575747693       -1.8698779135
 H         0.4229196825       -6.4312159426       -1.4804673514
 H        -0.5514704443       -5.2531797416       -0.6748307746
 H        -2.9995876542       -2.2572551287       -5.7007290070
 H        -3.8063446339       -2.5605253645       -4.1828722422
 H        -6.3280269686       -0.1850546380       -3.4710851736
 H        -6.0211222452       -0.5177654320       -1.7819228057
 H        -2.0760787928        1.3117444984       -2.4968079809
 H        -3.1028212586        2.2288907114       -3.6421369826
 H        -1.5564208288        1.6005338459       -4.0394966506
 H        -4.8179446930        0.6773687283       -5.3074538349
 H        -3.4263197979        0.0518966908       -6.1822431542
 H        -4.4313125514       -0.9937586013       -5.4912535980
 H        -5.9154263998        2.1412135304       -3.2972674447
 H        -4.6533732391        1.9072102176       -2.0316296662
 H        -6.9103805192        5.4376936694       -2.1538751952
 H        -5.7203888853        6.3706037803       -1.1875550762
 H        -8.3008598254        3.3117318964        0.7774588094
 H        -8.2194195112        4.2422177352       -0.8286732023
 H        -7.4532044422        4.9130765726        0.5993932567
 H        -4.4682186081        2.9428366328        1.0810297406
 H        -5.9741016443        3.4127921096        1.9612784396
 H        -5.8523376487        1.8539147861        1.3038305014
 H        -4.7236146766        6.6525661457       -3.2032790594
 H        -4.1176327383        5.0405674044       -3.1173780705
 H        -8.8811213713        5.6944710960       -6.9067748240
 H        -9.9238319693        6.3365984319       -5.4689997999
 H        -8.8051817241        7.4852717754       -6.2803556657
 H        -5.7455645598        7.9950714548       -6.3900513803
 H        -4.7358074891        7.6094495373       -5.0324611606
 H        -6.2746958625        8.1845045144       -4.6102185753
 H        -6.7483791427        6.4289057005       -7.3781742668
 H        -5.1874365884        5.8312844677       -7.1475099477
 H        -6.6411084584        4.7498582058       -7.1472421774
 Na       -1.2634719048       -1.0751848380       -1.0478735731
