155

 C         7.5130008400       -6.0148481110        5.5545124692
 C         6.2408775305       -5.8439089646        6.3854293709
 C         6.4439711318       -4.9207344069        7.7295494598
 C         6.5902054186       -3.4584581793        7.0915683615
 C         5.1843118153       -2.9038177285        6.6481294958
 C         5.2122894623       -5.0128112106        8.7106318753
 C         7.8202999297       -5.2696150537        8.4427297439
 O         5.1501189418       -6.2854973426        6.0389296539
 O         7.6359107767       -2.8632300998        6.8479970334
 C         5.3366024071       -1.4758084403        6.0600947070
 C         4.1868329734       -1.1468854906        5.2604712705
 C         3.9595753566        0.3016664526        4.8057423071
 C         2.4701132956        0.5838809762        4.4120083104
 C         1.8363668561       -0.0168668608        3.2130828393
 O         3.4202417108       -2.0075905129        4.8150128288
 O         1.8377807452        1.3598543281        5.0748965412
 C         4.3496600589        1.3943665405        5.8271569267
 C         4.9806181978        0.4794500812        3.6093487614
 C         0.2354540960        0.1661026645        3.3111791626
 C        -0.1402677733        0.2075699767        1.8639705275
 C        -0.1350469522        1.5742132606        1.0619892419
 C         0.7154841981        1.4306607499       -0.2465472767
 C         2.0859747336        2.0746426286       -0.4464215700
 C        -1.6217971293        1.5838331493        0.5117049335
 C         0.1865638261        2.8937016247        1.9234693390
 O        -0.5212934241       -0.8009596679        1.3605941211
 O         0.3528937492        0.6152596756       -1.0301497024
 C         2.8304547839        1.3065447493       -1.5135833197
 C         3.7167516181        0.2380918117       -0.8297325708
 C         4.7712579342       -0.6902193087       -1.6428870667
 C         4.1308803374       -1.7701355302       -2.4748076974
 C         3.2688283757       -2.7957455349       -1.7392218536
 O         3.6188731368        0.0559681157        0.3767044551
 O         4.2887303973       -1.7510144826       -3.6689025990
 C         5.7507968681        0.1317957436       -2.5263645749
 C         5.6791339188       -1.4506336021       -0.6887382881
 C         2.2214324856       -3.3805778121       -2.6325387430
 C         0.8496175772       -3.4901293796       -2.0196029795
 C        -0.1659504430       -4.6207344897       -2.5694512258
 C        -1.5143173934       -3.8734468633       -2.9657619432
 C        -1.9110926854       -3.7118172961       -4.3925271336
 C         0.4212138878       -5.3595501305       -3.7452809076
 C        -0.5377419336       -5.5857707029       -1.4778994369
 O         0.5697051749       -2.6716172884       -1.2026589033
 O        -2.1806533399       -3.4004689950       -2.0125823491
 C        -2.8998626971       -2.5712386563       -4.6127952042
 C        -2.3302900617       -1.1582585524       -4.0388172671
 C        -3.3332755559        0.0587076173       -3.9257421471
 C        -4.1522996354       -0.2456996710       -2.5657767628
 C        -5.6174081196        0.3050689282       -2.5285080562
 O        -1.1376848172       -1.0727015604       -3.8863566143
 O        -3.6778212009       -0.9347549127       -1.6577740701
 C        -2.4692621818        1.3038729001       -3.6879401120
 C        -4.2036085172        0.2777435876       -5.1760194640
 C        -5.6371446928        1.8152389590       -2.2512763397
 C        -6.7744850617        2.1421595452       -1.1779323886
 C        -6.3121326555        3.3991637264       -0.2723517473
 C        -5.3063491762        4.2321434759       -1.0838781075
 C        -5.7594514881        5.4329039270       -1.8847447163
 C        -7.5044540779        4.2400222940        0.3146882664
 C        -5.4887125218        2.7141914243        0.8968140685
 O        -7.6621508270        1.4385430745       -0.7680090440
 O        -4.0697930357        3.9927699018       -1.0987931810
 C        -5.0935806899        5.8042477552       -3.2235485483
 C        -5.7714189534        5.1720058104       -4.3338268352
 C        -6.3898198812        6.0829861389       -5.4083605993
 C        -7.8345308581        6.1742184709       -4.9552564190
 C        -8.8876856312        6.9706360593       -5.8754386233
 O        -5.7926425590        3.9721312827       -4.4733082635
 O        -8.2415365925        5.8497028049       -3.8737273702
 C        -5.9942954302        7.4820341164       -5.4538557025
 C        -6.2608085793        5.3576678720       -6.8338388171
 H         8.1332599090       -5.0977091837        5.6433128584
 H         8.0615712428       -6.8005367637        6.0088867386
 H         7.4126457877       -6.3292169245        4.5327638218
 H         4.7213013019       -3.7018948075        6.0803501999
 H         4.5326642138       -2.8316759554        7.5662894201
 H         4.2812060783       -5.0348645851        8.1641758775
 H         5.2418077948       -4.1455960947        9.3540879801
 H         5.4126943626       -5.8271173086        9.2642455957
 H         8.4738185018       -4.9703915457        7.6233147200
 H         7.8467360268       -4.6090286592        9.2917601775
 H         7.7867659738       -6.2333367221        8.7753886461
 H         5.5805043795       -0.7779867282        6.8962512613
 H         6.2640416483       -1.3236665058        5.4220786732
 H         2.2696100160        0.1087774350        2.2360513513
 H         1.9858621521       -1.1493281721        3.3999380376
 H         5.3350847893        1.8096447097        5.7585181045
 H         4.4490256595        1.1077871982        6.8723871263
 H         3.5612472825        2.1655804079        5.8535487912
 H         6.0106085430        0.3957160747        3.9275200018
 H         4.9297566624       -0.2585250188        2.7364200018
 H         4.9143990851        1.4395606418        3.1078514242
 H        -0.0835786466        1.1464396305        3.7459978812
 H        -0.2417439520       -0.6823904861        3.8133384202
 H         2.0755080907        3.1288576724       -0.7473617179
 H         2.6489697300        2.0908352650        0.5885568515
 H        -1.9363438588        0.5873649666        0.2742520315
 H        -1.6729300891        2.1588969827       -0.3768582387
 H        -2.3585020644        1.9656549451        1.2761061474
 H        -0.3648471436        2.8295425867        2.8964884170
 H         1.2133758760        3.0820809946        2.0509004761
 H        -0.3040276012        3.6987290394        1.3973545278
 H         2.1346115626        0.7454468761       -2.1599276965
 H         3.4401605842        1.9148737022       -2.1965608429
 H         3.8306515061       -3.6235392238       -1.2716091167
 H         2.6952698564       -2.1421250661       -1.0270351259
 H         5.3224223311        0.4115149377       -3.4722249443
 H         6.6377005401       -0.4555004598       -2.7968910922
 H         6.0069184913        1.0575039492       -2.0100951080
 H         6.2980195322       -0.7571108453       -0.1197490382
 H         5.0999023664       -1.9879269603        0.0489669358
 H         6.4155549521       -2.1253566835       -1.0876209419
 H         2.5779745785       -4.3064730609       -3.1068138759
 H         2.0826212028       -2.6979368943       -3.5436666227
 H        -1.0102351320       -3.5600219602       -4.9798605482
 H        -2.3657438708       -4.6451998209       -4.8144822320
 H         0.9740795894       -4.6141192764       -4.2841021798
 H        -0.3805266992       -5.8925543238       -4.3999834380
 H         1.1210678210       -6.1074618100       -3.4715693047
 H        -1.3249274656       -6.2720857335       -1.7971812257
 H         0.2656747942       -6.2377878975       -1.0944533221
 H        -0.8385071721       -5.0489911463       -0.5927548179
 H        -3.0579493938       -2.5099762246       -5.6759994423
 H        -3.9033436962       -2.7168676565       -4.2193302124
 H        -6.0254825017        0.0616018816       -3.5452198605
 H        -6.0987791234       -0.3874750941       -1.8427056231
 H        -1.8226771336        1.3103085408       -2.8725218496
 H        -2.9884799070        2.2764808326       -3.6502772687
 H        -1.7418020083        1.4187675670       -4.4620188162
 H        -4.5220247192        1.4036880477       -5.1332627081
 H        -3.6054541742        0.1065973582       -6.0614989459
 H        -5.0237041061       -0.3306030782       -5.3939601382
 H        -5.7157153629        2.4980278838       -3.0725229204
 H        -4.7086020118        2.0416989393       -1.6924813504
 H        -6.8542097435        5.5019102134       -1.9926075239
 H        -5.4592652369        6.2402345693       -1.2330636212
 H        -7.9903603964        3.6555268514        1.0144687467
 H        -8.1411551503        4.4808724036       -0.5711317986
 H        -7.0409470620        5.1057292033        0.8164275207
 H        -5.0170569966        1.7892203768        0.4053817444
 H        -4.7323235328        3.3740467909        1.2708290843
 H        -6.1136379173        2.2745085220        1.7796228064
 H        -4.9244317390        6.9281070526       -3.2473421603
 H        -4.0116998717        5.3754201828       -3.2415008821
 H        -8.6205747184        6.7659644201       -6.8741677893
 H        -9.8044256657        6.4508104458       -5.6100284347
 H        -9.0301779368        8.0074411416       -5.6904075572
 H        -6.4610020740        7.9218926070       -6.2569480034
 H        -4.8969870840        7.5221838159       -5.6697024629
 H        -6.1541234511        7.8928233459       -4.4851943036
 H        -6.5005437521        5.8401217777       -7.7887240380
 H        -5.1710876004        5.1237706795       -6.9734790089
 H        -6.8648682735        4.4830017608       -6.8085197949
 Na       -1.4755188814       -1.2390450537       -0.9302770686
