155

 C         7.5789669903       -6.2773552600        5.5792318134
 C         6.3539586180       -5.6521827866        6.3002262311
 C         6.6196830043       -4.8994663768        7.7624073758
 C         6.5596154139       -3.4657818726        7.2298577424
 C         5.1751826004       -2.7389001376        6.9205992029
 C         5.4216470897       -5.2286550601        8.6792143811
 C         8.0915679896       -5.1842933557        8.4263682400
 O         5.2210308934       -5.8431813162        6.0002795868
 O         7.5550464782       -2.9565121485        6.8132205614
 C         5.4381723913       -1.6344644896        5.9255923869
 C         4.2285172851       -1.1485520691        5.1206887204
 C         4.1111266591        0.3508433943        4.7594977718
 C         2.6657478674        0.6949357995        4.3292212357
 C         2.0384777053       -0.0457433730        3.1706784782
 O         3.4250335658       -1.9775015792        4.7651242690
 O         2.0155404762        1.4940101332        4.9749360964
 C         4.5375950106        1.2212106177        5.9353019067
 C         4.9301992931        0.6349575060        3.4414836572
 C         0.5579002342        0.0853087722        3.0609027367
 C        -0.1769885859        0.0898483855        1.6590788793
 C        -0.3874861447        1.4658684404        0.9356239696
 C         0.5553342623        1.0532426599       -0.3363945754
 C         1.8695015636        1.8453679384       -0.6436705526
 C        -1.8490741704        1.8412534837        0.5221037228
 C         0.2845868217        2.6906545858        1.6624260921
 O        -0.5648991736       -0.9732479223        1.1273234612
 O         0.1290117892        0.2924356392       -1.2023637828
 C         3.0527510944        1.2464795179       -1.5001576239
 C         3.8940466410        0.1110373221       -0.7419556145
 C         4.9425478092       -0.7177675006       -1.6248074175
 C         4.0706897288       -1.7299364507       -2.5266112131
 C         3.1102657381       -2.6543115881       -1.6916012606
 O         3.4982685719       -0.2650530069        0.3480472207
 O         4.2405658290       -1.7943439239       -3.7173601499
 C         5.7325179332        0.2659957911       -2.4530745485
 C         5.7301700593       -1.4791998417       -0.6141064749
 C         2.2581863864       -3.6378377514       -2.5744804788
 C         0.7221092016       -3.4254538575       -2.1770577238
 C        -0.3474195156       -4.4906626863       -2.5390635274
 C        -1.6704713178       -3.7777250681       -2.8300111642
 C        -1.9760697141       -3.5451458909       -4.3395308950
 C         0.0380539880       -5.4820339604       -3.6367351735
 C        -0.5244586723       -5.2883921223       -1.1493310644
 O         0.4396029413       -2.5458887387       -1.3981248820
 O        -2.4421144825       -3.3959742360       -2.0374311197
 C        -3.1114341351       -2.5195599358       -4.5064413530
 C        -2.4497496557       -1.2072240901       -4.0927616002
 C        -3.4254722363        0.1829307545       -3.9226996244
 C        -4.1645962480       -0.2092439236       -2.4993474560
 C        -5.6966432547        0.1007460407       -2.4304078202
 O        -1.2931935172       -1.1970457260       -3.7028807314
 O        -3.5049115208       -0.3283970155       -1.4913035580
 C        -2.4549041983        1.2810128544       -3.5943974747
 C        -4.3479731290        0.3185234442       -5.1652380945
 C        -5.6131241164        1.5858704510       -2.1757503152
 C        -6.6601329273        2.1930553071       -1.0619282614
 C        -6.1172097587        3.4412710369       -0.0845371712
 C        -5.1518699985        4.3089754326       -0.9725227364
 C        -5.7591943606        5.5450257629       -1.7449190425
 C        -7.3517443769        4.2228204651        0.3848311745
 C        -5.3220150633        2.8060686116        1.0580726410
 O        -7.7754551198        1.7284752947       -0.8730118504
 O        -4.0418477806        3.9989560589       -1.2504080388
 C        -5.0158919235        5.8343475895       -3.0825635840
 C        -5.7293315161        5.1738257645       -4.3031085027
 C        -6.4854350342        5.9554069542       -5.4524595818
 C        -7.9779263982        6.4532074090       -4.8478904499
 C        -8.9024758296        7.2826682387       -5.7439112128
 O        -5.6415794506        3.9642009864       -4.3563773585
 O        -8.4063133922        5.8801188673       -3.8688045152
 C        -5.7831911289        7.3210206808       -5.8111603444
 C        -6.5369999268        5.1666479112       -6.7264617949
 H         8.4781625397       -5.8046447886        5.8630300495
 H         7.7377029796       -7.3591104884        5.8447942623
 H         7.4803147769       -6.2323671997        4.4976775336
 H         4.5117352246       -3.5385239110        6.5045952352
 H         4.7088642377       -2.4034554985        7.8345487595
 H         4.5759449550       -5.2089694766        8.0237767373
 H         5.3602436394       -4.3791001014        9.3727690046
 H         5.5783227541       -6.1837399619        9.3108421396
 H         8.7976232084       -4.6159921570        7.9346293086
 H         7.7794985767       -4.8957267474        9.3987568618
 H         8.1677691196       -6.3249393949        8.3619706471
 H         5.9948674142       -0.9271206960        6.4899666947
 H         6.1833654384       -1.9572463073        5.2444181438
 H         2.5044888749        0.3088900404        2.2038532299
 H         2.2495982558       -1.0611134458        3.1281189097
 H         5.5691277655        1.5751928459        5.9201822072
 H         4.5307599594        0.8306862342        6.9394129728
 H         3.8605751697        2.0510679590        6.0478741866
 H         5.9733706973        0.3698095323        3.4095971640
 H         4.5537481517        0.1743739997        2.6095497797
 H         4.8863289789        1.6807731423        3.2252396222
 H         0.1500949815        0.8464496306        3.6983452786
 H         0.1765114669       -0.8403053299        3.5256806625
 H         1.6262940555        2.7632884360       -1.2018167002
 H         2.2774866716        2.1104522839        0.2592024600
 H        -2.3337763405        0.9414620693       -0.0011246829
 H        -1.7907425453        2.6861725591       -0.2586018402
 H        -2.4806783890        2.0637012432        1.3849273119
 H        -0.4142821661        3.2033849071        2.3445359115
 H         1.1713120522        2.3432564844        2.2921168476
 H         0.8047648368        3.2819649304        0.8378205874
 H         2.7494716479        0.6719379742       -2.4106271891
 H         3.7510375366        2.0115554375       -1.8892674447
 H         3.7795818880       -3.3386267896       -1.1534893076
 H         2.4493580531       -2.0844874862       -1.0353187716
 H         5.1410217890        1.1630623998       -2.7918116203
 H         6.2543349889       -0.1443220493       -3.3177155544
 H         6.4386306846        0.7355174847       -1.7605264784
 H         6.5904613898       -0.8742943464       -0.3050995192
 H         5.2121336974       -1.6732305466        0.2977088685
 H         6.1516115717       -2.4162960701       -0.9106407419
 H         2.5457793100       -4.6491408878       -2.3100747416
 H         2.3731098368       -3.6502887490       -3.6145292708
 H        -1.0764580037       -3.1878151467       -4.9127448949
 H        -2.2737156791       -4.4347776606       -4.8637534689
 H         0.1558452956       -5.0428423885       -4.6440022516
 H        -0.6224703493       -6.2560585928       -3.6681573829
 H         0.9926382121       -5.9551162535       -3.3464660720
 H        -0.7670423883       -6.3509138321       -1.2745204349
 H         0.4149048276       -5.2812481614       -0.6397075218
 H        -1.2145214061       -4.8760316270       -0.4141910939
 H        -3.4489023529       -2.4119010045       -5.5783858009
 H        -4.0548871910       -2.5612048013       -3.8854480476
 H        -6.1229351712       -0.1964208260       -3.3626082034
 H        -6.1174986679       -0.5482104291       -1.6406758159
 H        -1.5936957498        1.0616220025       -2.9332422936
 H        -2.8730803416        2.0931861087       -3.0780124180
 H        -1.9816574315        1.7100474515       -4.4834491397
 H        -5.1730155877        0.9811101811       -5.0551370717
 H        -3.7986514496        0.7188156003       -6.0196702921
 H        -4.7248464406       -0.7141529885       -5.5226053189
 H        -5.7447625055        2.2640887125       -3.1078665586
 H        -4.6459164589        1.7844130779       -1.7392236783
 H        -6.8294021170        5.4338377563       -1.9414820001
 H        -5.6517008200        6.4847340259       -1.1410320253
 H        -8.1307734735        3.4341643613        0.6550279436
 H        -7.6885687686        4.5876786257       -0.5251831392
 H        -7.1663624712        4.8709442356        1.2067275593
 H        -5.4808596725        1.7655233789        1.2346950168
 H        -4.2857968053        3.1719292635        0.9519470235
 H        -5.6807206476        3.1198353364        2.0485793930
 H        -4.9237185782        6.8734955263       -3.1322521478
 H        -4.0461741771        5.5370223612       -2.9476862666
 H        -8.5586181847        7.4173022097       -6.7772267472
 H        -9.8521453569        6.7971736387       -5.5570763744
 H        -9.0183433782        8.2601065624       -5.2430679075
 H        -6.4599446420        7.7868008018       -6.6370967292
 H        -4.7999958094        7.2216245950       -6.2476460933
 H        -5.7238617766        7.9369791728       -4.8790804429
 H        -7.1539915004        5.7668031813       -7.3822624564
 H        -5.6407421505        5.2095972656       -7.2395046380
 H        -7.0006194016        4.1581898109       -6.7488215919
 Na       -1.3476853573       -1.4531714850       -0.9973768409
