155

 C         7.3745590920       -7.0961047722        6.2441601570
 C         6.7541204322       -5.7221350497        6.2110399353
 C         7.0036744644       -4.7327870079        7.4629403547
 C         6.8564780529       -3.2838658245        6.9945338141
 C         5.5790865876       -2.8168936775        6.3652395825
 C         5.8965512022       -5.0910021734        8.4027665502
 C         8.4771175239       -5.0308309813        8.0775207921
 O         5.9335509633       -5.4168569345        5.3354051954
 O         7.8505618795       -2.5623139789        7.1583402561
 C         5.8268841482       -1.7610118312        5.2057456423
 C         4.4558311341       -1.1243074780        4.9485255940
 C         4.2857635887        0.3559747699        4.5039419154
 C         2.8258031697        0.6308102558        4.0553362266
 C         2.0354288331       -0.3067725305        2.9928327893
 O         3.4066887070       -1.7092243720        5.2268067535
 O         2.2156713349        1.5425232233        4.5453425187
 C         4.5398014182        1.2406479076        5.7290633513
 C         5.3214544798        0.6388940644        3.3421538807
 C         0.5498101166       -0.1648340878        2.9733518187
 C         0.0971878017       -0.0469023657        1.5568265714
 C         0.1025945918        1.3355701537        0.8823430831
 C         0.7859975177        1.1184890865       -0.5102076344
 C         2.0335087477        1.8952251702       -0.9002793270
 C        -1.4176505719        1.7360300019        0.6477054852
 C         0.7256723247        2.4565657356        1.7656052090
 O        -0.3091761683       -0.9498367569        0.8786377011
 O         0.2972231033        0.4730775731       -1.3745399070
 C         2.9478282766        1.1006870123       -1.8363416257
 C         3.6145085514       -0.1833037884       -1.0423697285
 C         4.5788927507       -1.2789100793       -1.8954882343
 C         3.5878514803       -2.2835237173       -2.7896998831
 C         3.3762385994       -3.7137742261       -2.0390268224
 O         3.4948469393       -0.2140445520        0.1798802791
 O         3.3104883141       -2.0073452947       -3.9348498374
 C         5.5615685231       -0.4960319502       -2.7945153052
 C         5.3645400604       -2.1956446703       -0.9581395300
 C         2.1549176451       -4.4768944410       -2.4963135763
 C         0.8063148304       -3.7980446814       -2.1331420950
 C        -0.4364661561       -4.6882881606       -2.2221064070
 C        -1.7105313967       -3.8348973490       -2.5748905060
 C        -2.3329804384       -3.7968622393       -4.0313016718
 C        -0.3223868085       -6.0013551716       -3.0747179725
 C        -0.5629146765       -5.0940224064       -0.7038934038
 O         0.6873283791       -2.6234958191       -1.7256221695
 O        -2.2414939021       -3.2543555491       -1.6539008031
 C        -3.3060793241       -2.6245652331       -4.2937357767
 C        -2.8756422494       -1.1411329370       -3.8883114101
 C        -3.8484891068        0.0451482438       -3.6946367314
 C        -4.4844526788       -0.2191058980       -2.1936013217
 C        -5.8527215115        0.3542785446       -1.8535538725
 O        -1.7121715877       -0.8872377528       -3.6587123659
 O        -3.7272805216       -0.5235243943       -1.2754443664
 C        -3.1055070893        1.4198205049       -3.7175690057
 C        -4.8725845570        0.0108892205       -4.7548179189
 C        -5.7948503754        1.8929497884       -1.8827730971
 C        -6.6625869053        2.6706723832       -0.8985947981
 C        -6.0437133154        3.7815517522       -0.0099928903
 C        -5.3448596076        4.9435437321       -0.8485580708
 C        -6.1360368514        5.9734384182       -1.6792759644
 C        -7.1750982105        4.4229315135        0.8744550998
 C        -4.9938962406        3.1305745744        0.9215180155
 O        -7.8536538225        2.5298640146       -0.9499821350
 O        -4.1234265179        5.0808402858       -0.9222989108
 C        -5.3396324369        6.4612372868       -2.9627183900
 C        -5.5822096510        5.3516532516       -4.0720332284
 C        -6.7483664626        5.7924395491       -5.2626612661
 C        -7.8219312696        6.6800025368       -4.6357900463
 C        -7.9586588770        8.2255378304       -5.1952219554
 O        -5.0949206585        4.2542562374       -3.9827985357
 O        -8.6758610193        6.2225696775       -3.9220838380
 C        -6.0386842789        6.3559947205       -6.4878679531
 C        -7.5768780788        4.6083713997       -5.7579809908
 H         7.8727957058       -7.1775186438        5.2533669389
 H         8.1281870573       -7.3007642245        6.9941210267
 H         6.5568071912       -7.8327416719        6.1504257589
 H         4.8925426496       -3.6160893652        5.9691986258
 H         5.0633412396       -2.2998865756        7.2064220984
 H         4.9824753926       -5.2006639239        7.8353291804
 H         5.7260097591       -4.3021110291        9.1506778150
 H         6.0788377161       -6.0012292512        8.8817539225
 H         9.1660205696       -4.8775713499        7.2785402553
 H         8.6182168509       -4.2755013380        8.8337174136
 H         8.3672250921       -5.9915462441        8.4508543031
 H         6.4493862379       -0.8855694324        5.5408883090
 H         6.2243862580       -2.2704762667        4.2841725389
 H         2.4687931257       -0.2269326471        1.9312130398
 H         2.2931885443       -1.2716987316        3.3218199848
 H         3.7066844629        1.3887350662        6.4307758008
 H         4.8303456392        2.2616102880        5.5134313391
 H         5.3550899927        0.7426232868        6.3640528227
 H         6.3918520534        0.5113858928        3.6504649585
 H         5.0890728488       -0.0331954666        2.4450072151
 H         5.2555506794        1.6727942032        2.9449337369
 H         0.2449130706        0.6561055843        3.6197244925
 H         0.0549795375       -1.0303275754        3.4751788479
 H         1.7117734237        2.7223529523       -1.5936721014
 H         2.6210739499        2.2998229225       -0.0820733462
 H        -1.8876026217        0.9013435899        0.2367627771
 H        -1.4543004515        2.5230775095       -0.0313229005
 H        -1.8748343396        2.1689359832        1.5555594264
 H         0.2361662249        2.4883193296        2.7608722177
 H         1.7668859563        2.3736424589        1.8691290193
 H         0.3866554949        3.3274173982        1.3071298326
 H         2.3958031758        0.6247153601       -2.6766439180
 H         3.8875493216        1.6685839700       -2.1693365290
 H         4.2867680426       -4.3492550440       -2.1796662496
 H         3.4389266206       -3.6154282060       -0.9111005528
 H         6.0550370295       -1.0929750969       -3.5739061338
 H         6.2715842585        0.0765095406       -2.2304539433
 H         5.0332548325        0.2627016354       -3.2809459789
 H         6.2900569016       -1.6599163069       -0.5306605182
 H         4.7912583089       -2.6366721225       -0.1309253159
 H         5.7587299081       -3.0259760531       -1.5112133393
 H         2.1863657350       -5.5668119652       -2.2597646543
 H         2.0661934617       -4.4242705585       -3.6226428981
 H        -1.4814021657       -3.8880683046       -4.7435688934
 H        -3.0386051651       -4.6055068040       -4.1424786246
 H        -0.0864569636       -5.8946811788       -4.1528689170
 H        -1.3251160510       -6.5306705952       -3.0409277952
 H         0.4167833814       -6.6841829933       -2.7526255446
 H        -1.0501341932       -6.1150158051       -0.5800638730
 H         0.4244717391       -5.2616617908       -0.3296559414
 H        -1.0914300984       -4.3926441882       -0.0516109151
 H        -3.4223281330       -2.5842890759       -5.3486016246
 H        -4.2839918856       -2.7448259541       -3.7843369545
 H        -6.5939760526       -0.0016399330       -2.5447283547
 H        -6.2928561854        0.1054762049       -0.8252286968
 H        -2.0047052903        1.3957624748       -3.7344441140
 H        -3.3718121317        2.0982285741       -2.8710241323
 H        -3.4998577866        1.9916982538       -4.5848261862
 H        -5.5433266755        0.9060293804       -4.4910363692
 H        -4.3618394645        0.2225758450       -5.6602430729
 H        -5.4169058958       -0.8722774990       -4.8358364063
 H        -6.2120462503        2.3184530323       -2.8994906701
 H        -4.8565735242        2.3799210084       -1.8984251597
 H        -7.0708089885        5.4847110915       -2.0046579337
 H        -6.4702053393        6.8100021880       -1.0703604230
 H        -7.7967818027        3.5628718736        1.0587819589
 H        -7.7449395954        5.2419794246        0.3762062654
 H        -6.7546241107        4.9010104548        1.7489656288
 H        -4.0524100294        3.6843529829        0.8027253805
 H        -5.1135373232        3.2139183261        1.9399419732
 H        -4.6622759675        2.0814418521        0.6355225305
 H        -5.7478427990        7.5018168822       -3.2610321684
 H        -4.2340897533        6.5166132316       -2.6945960193
 H        -8.6241195735        8.4090693132       -6.0026233354
 H        -8.4347092040        8.8826504109       -4.4320399489
 H        -6.9613348019        8.6031008092       -5.4510545773
 H        -6.7715667986        6.4888171823       -7.2552791086
 H        -5.3571129418        5.5197856321       -6.6975581929
 H        -5.5004488786        7.2576688831       -6.3531118188
 H        -8.4031895068        4.9773416937       -6.4106933837
 H        -7.0009723949        3.8275381158       -6.2001976739
 H        -7.9874297274        4.0603073204       -4.9008220620
 Na       -1.4103826174       -1.1098354960       -1.4311512286
