155

 C         8.3123781927       -6.9766104235        6.5988372343
 C         7.6499424568       -5.6903634718        6.0861112329
 C         8.1054143998       -4.3204025635        6.7640132607
 C         7.3142027525       -3.0482888947        6.1388163465
 C         5.8375701779       -3.1110046318        5.9258171941
 C         7.8485888456       -4.3327121130        8.3145868413
 C         9.6082621652       -4.1540128796        6.6092653908
 O         6.7790591207       -5.6639616406        5.2485123775
 O         7.9411537745       -2.0765465331        5.8872484399
 C         5.2069387462       -1.7388287610        5.5516533674
 C         4.8386079635       -1.7528464227        4.0674888026
 C         5.0010092914       -0.2842905375        3.1011245789
 C         3.5861154177        0.3080244380        3.1031031028
 C         2.3834997383       -0.4740890421        2.5016927293
 O         4.3482443678       -2.6586814974        3.5151871645
 O         3.4058987034        1.3738947674        3.6907378061
 C         6.0520033553        0.7300867689        3.6093687783
 C         5.4363850362       -0.6843778050        1.6187685838
 C         1.1336064821        0.4670127405        2.5012105723
 C         0.5126587662        0.3734619104        1.1209940212
 C         0.7721628610        1.5226073755        0.0389052911
 C         1.0689488539        0.9922811075       -1.3846118988
 C         2.5266763486        0.5005778664       -1.5754971772
 C        -0.5339928394        2.3431176509       -0.0977924832
 C         1.8582938203        2.3630966808        0.6403611350
 O        -0.2317366939       -0.5652625247        0.7752468170
 O         0.2435804247        0.7288339552       -2.2658015287
 C         2.7601777060       -0.4077082399       -2.7746619928
 C         3.7686780010       -1.5298979886       -2.3486821928
 C         4.0853223914       -2.8110024426       -3.3250992311
 C         2.7803997998       -3.7441866697       -3.1013807223
 C         2.5598602487       -4.2895583633       -1.7260328079
 O         4.2288207115       -1.6115705384       -1.2476830645
 O         1.8762166895       -3.9031259958       -3.9168772880
 C         4.1262891070       -2.3022739352       -4.7482583535
 C         5.3396693546       -3.5784549106       -2.8795595609
 C         1.1965730448       -4.9884714758       -1.6562305533
 C        -0.0099415573       -4.0005503521       -1.3791606329
 C        -1.3801458658       -4.6337559448       -1.1290643706
 C        -2.4629949878       -3.5289670318       -1.3656479126
 C        -3.1837720885       -3.4677254251       -2.7047238214
 C        -1.5987275495       -5.8873930234       -1.9934218547
 C        -1.4134942457       -4.9233552955        0.4655847907
 O         0.2452587257       -2.8207620704       -1.3920252364
 O        -2.6295889871       -2.7417876767       -0.4395986975
 C        -4.2526044151       -2.4182173174       -2.7334365935
 C        -3.6207933085       -0.9444096462       -2.8469709196
 C        -4.6061769488        0.2911211896       -2.8944462401
 C        -4.1240164270        1.0521406151       -1.5326031471
 C        -4.6704455016        2.3968438508       -1.0550641104
 O        -2.4190817109       -0.7899228451       -2.9178773705
 O        -3.3801422290        0.4102003916       -0.8299045964
 C        -4.2611936676        1.0348707665       -4.2376776050
 C        -6.0954744564       -0.0472529335       -2.8230000700
 C        -6.1018927202        2.1477812343       -0.4732059097
 C        -6.8397617050        3.4847291272       -0.0841712914
 C        -6.1306918348        4.6816177390        0.7990235038
 C        -5.1259905804        5.5489705093       -0.1287282664
 C        -5.5987861849        6.7529011222       -0.9561781608
 C        -7.3002672824        5.5519612619        1.3218070736
 C        -5.3345153893        4.0546382568        1.9589266926
 O        -7.7482601560        3.8774771036       -0.7873732457
 O        -3.9470339379        5.1726141230       -0.3000018786
 C        -5.2823885698        6.6888344347       -2.4051986118
 C        -5.9771922640        5.6489250215       -3.2290488155
 C        -7.4127024516        5.9087882182       -3.9523751970
 C        -7.4200900221        6.9581001494       -5.0771382056
 C        -8.4808586295        6.9803908137       -6.1728921927
 O        -5.4877159860        4.5290182091       -3.3273984347
 O        -6.7687912396        7.9964374748       -4.9703237255
 C        -8.1157024390        4.6658622074       -4.3175489786
 C        -8.3157995651        6.5913384305       -2.8397271540
 H         7.8432265112       -7.8286688406        6.0937735763
 H         9.3277560125       -6.8892835627        6.3630788116
 H         8.2098089087       -7.0570186354        7.6569389277
 H         5.5190372970       -3.9561364055        5.3561220982
 H         5.4916131125       -3.3361944662        6.9574960083
 H         7.0956598684       -4.9968808248        8.7385694793
 H         7.6110964245       -3.2806824580        8.6852078410
 H         8.7154997150       -4.5464728153        8.9418935386
 H         9.8740980947       -4.1282873215        5.4780883847
 H         9.9512781758       -3.1211279388        6.9751234566
 H        10.1648233123       -4.9747703131        6.9946917551
 H         4.2782186944       -1.6843865358        6.1032659109
 H         5.8701542459       -0.9212794947        5.8635940714
 H         2.7149093102       -0.8300801801        1.5492029817
 H         2.0739108505       -1.3204455207        3.1828947423
 H         5.6277808554        1.0926488352        4.5416917796
 H         6.1399088357        1.4967533062        2.8507736888
 H         7.0060773318        0.1516207485        3.8012313472
 H         6.5376566287       -0.7699623791        1.6226058940
 H         4.9614267501       -1.6853174365        1.3370175501
 H         5.1797888258        0.1664085143        0.9657571654
 H         1.4545819172        1.4760937647        2.7947964761
 H         0.4409145648        0.0018501501        3.2026242010
 H         3.2115530952        1.3062783323       -1.5525879379
 H         2.9592388639       -0.0479254953       -0.6944798335
 H        -1.1907005278        1.7401854048       -0.7594242666
 H        -0.3792472712        3.3462105015       -0.5400012928
 H        -1.1731327428        2.4461009281        0.8731323769
 H         1.3451343472        3.1631016966        1.2995094464
 H         2.5496076846        1.7100693707        1.2295854083
 H         2.3198806761        2.8582976304       -0.2123787206
 H         1.7716083203       -1.0583811079       -2.9568892057
 H         2.8725013612        0.2112885767       -3.6325677854
 H         3.3290665655       -5.0361322009       -1.5218256104
 H         2.6977411809       -3.5770779619       -0.9294258637
 H         4.0935942862       -3.0780316800       -5.5120247193
 H         4.9538595072       -1.6544344276       -4.8831017608
 H         3.2256929662       -1.7608032747       -4.9426783465
 H         6.2484661856       -3.0064663486       -3.1387014554
 H         5.2718554728       -3.6412584959       -1.8365330985
 H         5.3683558881       -4.5261770423       -3.3094671590
 H         1.1546443114       -5.7782024851       -0.9695338414
 H         1.0928418529       -5.5100153512       -2.6366902595
 H        -2.4457319867       -3.0155835840       -3.3601683505
 H        -3.4810815470       -4.4906498756       -2.8888495550
 H        -1.6016935965       -5.6592061830       -3.0471300809
 H        -2.6423014130       -6.2414411561       -1.8171595466
 H        -0.8989944041       -6.6536270808       -1.7385908426
 H        -0.8845753922       -4.1103930817        0.9976838250
 H        -2.4579239175       -5.0891572114        0.7653511944
 H        -0.9658399953       -5.8902324746        0.7290843728
 H        -4.8676410946       -2.5647140041       -3.6027626889
 H        -4.8653450781       -2.5991834579       -1.8977996294
 H        -3.9753298770        2.8248567484       -0.2538056056
 H        -4.8970164978        3.0913293183       -1.8295618395
 H        -4.8239338144        0.5439997964       -5.0652731961
 H        -3.2286044441        1.1079265774       -4.3996644615
 H        -4.5783781813        2.0756295846       -4.2274822493
 H        -6.7769098876        0.7133192909       -2.8338068404
 H        -6.4512793858       -0.8237087228       -3.5915111691
 H        -6.3584527359       -0.5537405429       -1.9473101638
 H        -5.9496220712        1.3456938164        0.3122941228
 H        -6.8148499935        1.7045421640       -1.1811149932
 H        -6.6463390490        7.0114292919       -0.8405137155
 H        -5.1212620438        7.6025315659       -0.5537352596
 H        -7.8357265291        5.1950415569        2.2339136807
 H        -8.0369661114        5.6963469735        0.5501918695
 H        -6.8903474941        6.4487292294        1.7241005631
 H        -4.8567256502        3.2476699146        1.3993774935
 H        -4.8656384763        4.8425786963        2.5770659328
 H        -5.9422040068        3.6600805102        2.6689386400
 H        -5.5583470937        7.6649924163       -2.8670719445
 H        -4.1694546363        6.4629883126       -2.5214110578
 H        -9.0449105403        6.1234823463       -6.3594338626
 H        -9.2133104852        7.7950600856       -6.0446067430
 H        -8.0522995858        7.1032102329       -7.1453848831
 H        -9.1250165866        4.8337454571       -4.7198208285
 H        -8.2168031152        4.0057306001       -3.5104010249
 H        -7.7030349016        4.0921578111       -5.1449285953
 H        -9.3507791905        6.5049587448       -3.0722254309
 H        -8.1816156375        6.0211478375       -1.9476886419
 H        -8.2570695486        7.7150266613       -2.7683636423
 Na       -1.3139651722       -0.8147592582       -1.0784900863
