155

 C         8.4290335558       -6.8231893012        6.1475801555
 C         7.5488792996       -5.5704811522        6.0171797406
 C         8.0186048810       -4.1769830234        6.7332012040
 C         7.3688829358       -2.8818432758        6.0599366193
 C         5.7866700969       -2.8490625932        5.9923563870
 C         7.7302735902       -4.2059234425        8.2164868666
 C         9.5786202932       -4.0747703612        6.6032425485
 O         6.5389697711       -5.5790871712        5.3238614177
 O         7.9666595945       -2.1020429654        5.3501453869
 C         5.1987894319       -1.6089624031        5.3370378247
 C         5.2320205214       -1.7308202627        3.8657340041
 C         5.3504384002       -0.4323982413        2.9030127752
 C         3.9291854770        0.2434888038        3.2173555999
 C         2.5789083355       -0.4711460828        2.6096715382
 O         5.1366708045       -2.7728652347        3.2833022688
 O         3.8756466487        1.3091106882        3.8733038470
 C         6.5028821046        0.5843930524        3.3301434102
 C         5.6382788498       -0.8345360039        1.5053353336
 C         1.3649335348        0.5576807113        2.4846916354
 C         0.7564252898        0.3003941709        1.1306140417
 C         0.8975245351        1.5555354530        0.1155607668
 C         1.1777913441        0.9050699933       -1.3337007221
 C         2.6665730533        0.6714964095       -1.9562116080
 C        -0.5492278488        2.2234075498        0.2373445095
 C         2.0485051473        2.6133436863        0.4754096757
 O         0.0898002395       -0.6970682594        0.7566791846
 O         0.3229547446        0.2580285640       -1.9134831907
 C         2.7566449692       -0.5205941002       -2.9877938811
 C         3.6608444257       -1.6303966552       -2.3973994326
 C         3.7550383450       -2.8626133022       -3.3951159588
 C         2.5051852053       -3.8455000450       -3.1525604226
 C         2.3362614217       -4.4933830290       -1.7464436249
 O         4.4133203599       -1.5403734466       -1.4646277428
 O         1.7175686096       -4.0727679526       -4.0488515090
 C         3.9177852709       -2.5119563627       -4.9137427209
 C         5.0349700670       -3.7251859654       -3.0388189070
 C         0.8956025205       -5.0370540521       -1.5032917805
 C        -0.2292170605       -3.9804089706       -1.3412717120
 C        -1.6019088688       -4.5054546498       -0.8327210664
 C        -2.6935440141       -3.4151425706       -1.2569628488
 C        -3.4889389893       -3.7013456777       -2.5541647758
 C        -1.8423011110       -5.9558043386       -1.3551134361
 C        -1.5556022933       -4.5546098706        0.6719105326
 O         0.0338195320       -2.7832752543       -1.3923644072
 O        -2.9756041453       -2.4882880480       -0.5018478096
 C        -4.4537205354       -2.5286521747       -2.9185586103
 C        -3.7984067457       -1.1885516440       -3.0956495448
 C        -4.5970764749        0.2156159798       -2.8740120036
 C        -4.4524937774        0.9561200266       -1.4209407679
 C        -5.2194758214        2.2873091431       -1.2126249609
 O        -2.6642538928       -1.0746658703       -3.4993422014
 O        -3.4623647683        0.7094552938       -0.7912084034
 C        -3.9332507112        1.3014896117       -3.7968355399
 C        -6.1554330270        0.0617694097       -3.0752447978
 C        -6.2923488586        2.3027718919       -0.1064974549
 C        -6.7225680276        3.8287409045       -0.0258758890
 C        -5.9027609324        4.7615057413        1.0171141373
 C        -4.9727711217        5.6754215682        0.0225765316
 C        -5.4858065407        6.9058222040       -0.7833718883
 C        -6.8037137217        5.7009328935        1.7325940837
 C        -4.9463674775        3.8921319712        1.9998997662
 O        -7.5867485981        4.2588113659       -0.7342280887
 O        -3.9179359835        5.1857232020       -0.2853970180
 C        -5.3827680864        6.6731384467       -2.3332732679
 C        -6.3813673243        5.6602781319       -2.9827790435
 C        -7.7133315067        6.0126844439       -3.6638147747
 C        -7.2064769821        6.6513032387       -4.9989917140
 C        -8.1817353361        6.6110961584       -6.1446218203
 O        -5.7825126892        4.5898190608       -3.1784400814
 O        -6.2057869052        7.3078744338       -5.0112204824
 C        -8.5622844610        4.8160917288       -3.8880810953
 C        -8.6139603939        7.0348649867       -2.9063397357
 H         7.8555872783       -7.6986642168        5.8494233316
 H         9.1521190934       -6.6052806833        5.4028680773
 H         8.8224120429       -6.9889761616        7.1356946586
 H         5.5307389853       -3.6034486208        5.2995407245
 H         5.3850522564       -3.1503821148        6.9483126073
 H         6.6461383366       -4.1913805643        8.4182077503
 H         8.1011929793       -3.3391046910        8.8467440540
 H         8.1084560795       -5.0741751866        8.6337416935
 H        10.0253510242       -4.2665563899        5.6088897679
 H        10.0286336002       -3.0732720185        6.8369376183
 H        10.0542533221       -4.8729847344        7.2176376587
 H         4.1241396852       -1.5782047571        5.5508498695
 H         5.5960983624       -0.6576345688        5.7459046175
 H         2.7917829086       -0.8022858977        1.6513682069
 H         2.3309362106       -1.3222320014        3.2810574700
 H         6.0983961712        1.1954343283        4.1457114699
 H         6.7452225141        1.2152113236        2.4956499108
 H         7.3038801811       -0.0794478647        3.7610738362
 H         6.6747152898       -1.2189249762        1.5257143894
 H         4.8696603713       -1.6145452720        1.1110980681
 H         5.5750637498        0.0436360598        0.8209658235
 H         1.7058090639        1.5949100709        2.5924686114
 H         0.5930547455        0.3032757796        3.2082446332
 H         2.9046085815        1.5766618539       -2.4318090222
 H         3.5310625503        0.6578159908       -1.2652665050
 H        -1.2731176164        1.4999929490        0.5685442451
 H        -0.8609336344        2.7318821429       -0.6109543181
 H        -0.5852270337        3.0914513905        0.9069104278
 H         1.7701841087        2.9182795637        1.5109934325
 H         3.0207608464        2.1629557884        0.3249150308
 H         1.7632768027        3.5370284981        0.0483662239
 H         1.6837569247       -0.8899953162       -3.2736478944
 H         3.1635268446       -0.2143466443       -3.9155639825
 H         2.8819670246       -5.4009459773       -1.7375395363
 H         2.6667376001       -3.9586680785       -0.9120203629
 H         4.2161605975       -3.4552053586       -5.4494671471
 H         4.6730840118       -1.7595072944       -5.0387493733
 H         3.0194578921       -2.1286508451       -5.3697350350
 H         5.9509954392       -3.2763211394       -3.3561764660
 H         5.0926360589       -4.0446179154       -1.9613232675
 H         4.9606578829       -4.6184644830       -3.7107372757
 H         0.9336181777       -5.5329203557       -0.5826736706
 H         0.6412748601       -5.7826186012       -2.2816254264
 H        -2.7910735276       -3.8970222400       -3.3709705244
 H        -4.1655443336       -4.5552987050       -2.4041689671
 H        -1.8919675760       -6.0408132271       -2.4217015313
 H        -2.7544284018       -6.3952537804       -0.8448411648
 H        -1.1058363577       -6.6137121497       -1.0714987682
 H        -1.5072931659       -3.4914211696        0.9765451319
 H        -2.4070755600       -5.0557209293        1.0654511015
 H        -0.6733203257       -4.9801559303        1.1020640242
 H        -5.0032152287       -3.0005865489       -3.6973020121
 H        -5.1709386868       -2.4473057516       -2.1687670054
 H        -4.4598222477        3.0034615491       -0.8886022672
 H        -5.7735075345        2.6677902024       -2.1476337792
 H        -3.6367115823        1.0551561427       -4.8233791180
 H        -3.0373151469        1.7287709330       -3.3381566863
 H        -4.7104776614        2.0883410430       -3.9986084890
 H        -6.4347313276        0.3740921217       -4.0787688297
 H        -6.7386413567       -0.8948539401       -2.8831009797
 H        -6.7621727146        0.7871855975       -2.5244913772
 H        -5.7866065834        1.9584670548        0.8344174701
 H        -7.1164615239        1.6884841601       -0.4666274042
 H        -6.4503473710        7.3467831724       -0.5399488087
 H        -4.7703359489        7.6943694463       -0.7203910827
 H        -7.2081142066        5.2133775697        2.6548520611
 H        -7.5849646506        6.2365236686        1.1273459376
 H        -6.1822515129        6.4840320666        2.1755858484
 H        -4.0688870822        3.6074212711        1.3689556876
 H        -4.8047424799        4.6606789597        2.8212296948
 H        -5.4627710030        3.0556532463        2.2982253169
 H        -5.4116705073        7.6424040379       -2.8391336522
 H        -4.4626880472        6.1356362498       -2.4030171564
 H        -7.7916478706        5.8473450270       -6.7894042872
 H        -9.1612249585        6.2544321750       -5.9063921894
 H        -8.3531699490        7.4392636367       -6.8101009113
 H        -9.3872865353        4.8531307065       -4.5741187118
 H        -9.0641027564        4.5339135290       -2.9730780342
 H        -8.0272545249        3.9708904424       -4.2463676533
 H        -9.1818398316        7.6773002265       -3.5843616008
 H        -9.2709016194        6.5717965044       -2.1832873723
 H        -7.8832541059        7.6993946779       -2.3440137914
 Na       -1.4719300045       -0.9189199909       -1.2516338191
