155

 C         8.3659478635       -5.8941654599        4.7540383461
 C         7.5304672188       -5.2712630371        5.8974506341
 C         8.1081671400       -4.0543572509        6.7187216185
 C         7.5920069871       -2.8885005653        5.8483560973
 C         5.9831429849       -2.7282475975        5.6109464327
 C         7.5620748939       -4.0688078305        8.2182057893
 C         9.6313517477       -4.0021041477        6.7822201387
 O         6.3659760505       -5.6754942483        6.1189174806
 O         8.3476203281       -2.2429434724        5.1395261054
 C         5.7845882959       -1.5171692407        4.7028230148
 C         5.6908068850       -1.7918570125        3.2258222327
 C         5.9705203520       -0.4719364425        2.3178846498
 C         4.5406496584        0.0995066392        2.1762106962
 C         3.5152660192       -0.5953279555        1.2372986012
 O         5.3177445103       -2.8778500456        2.8313841151
 O         4.1718696277        1.1053904391        2.8671142344
 C         7.0682155032        0.5017005980        2.9841614048
 C         6.4696896610       -0.9231062853        0.9257473494
 C         2.0074850266       -0.3546598626        1.7962252015
 C         0.9195887041        0.2951188537        0.9783355997
 C         1.3500868058        1.4583728365       -0.0487961909
 C         1.5086810043        0.6602077384       -1.3665882699
 C         2.7007226781        0.8027163975       -2.2486685170
 C         0.1492045175        2.5131786254       -0.2541956325
 C         2.5046163219        2.3629616553        0.4142859118
 O        -0.2506870041        0.0125208809        1.0192854678
 O         0.6425531185       -0.1886626561       -1.6869494245
 C         2.7151617818       -0.2892323165       -3.3627235282
 C         2.9510377817       -1.6494099620       -2.5995843379
 C         2.9591563922       -2.9575177031       -3.5114424553
 C         1.6698593135       -3.7910601230       -3.1035996330
 C         1.4755340033       -4.5743060691       -1.7697864713
 O         3.1852939253       -1.7222844623       -1.4252119693
 O         0.8053184140       -3.8982279786       -3.9324039123
 C         2.9249638971       -2.6359915685       -5.0326920138
 C         4.1344367330       -3.7879937620       -3.0886374112
 C         0.0066879333       -5.0751245247       -1.6205160607
 C        -0.8271548527       -3.9158064270       -0.8932007545
 C        -2.2853159782       -4.3356053902       -0.2413590675
 C        -3.3561506806       -3.3559145383       -0.7206837189
 C        -4.2616558607       -3.6243571505       -1.9552165854
 C        -2.5644568851       -5.8074891523       -0.6375752407
 C        -1.9528077927       -4.3339608612        1.3142847438
 O        -0.4604181249       -2.7743810384       -0.7507947935
 O        -3.3141363672       -2.2274230059       -0.2280634562
 C        -4.9159368305       -2.2174831035       -2.2989775659
 C        -3.8889259759       -1.1771376780       -2.7577502411
 C        -4.3863516514        0.3450237620       -2.9768103921
 C        -4.1930626056        1.2642733277       -1.6160142426
 C        -5.3795505896        2.1694515313       -1.1617619334
 O        -2.7792227566       -1.5914617778       -3.0228931040
 O        -3.1774430021        1.1782190863       -0.9940854840
 C        -3.3500489859        0.8954712123       -4.0682270910
 C        -5.7924829216        0.3201920560       -3.5178899343
 C        -5.4700791897        2.0861826818        0.3973965649
 C        -6.1271218374        3.3638553472        0.9270628971
 C        -5.1178504377        4.5294780601        1.3150121403
 C        -4.8574108607        5.3249179964       -0.0261961221
 C        -5.7647960631        6.5719842816       -0.3921098372
 C        -5.8023198096        5.4608065266        2.4318123801
 C        -3.7350338709        3.9296183504        1.8692621074
 O        -7.3139086701        3.4820091013        1.0807485219
 O        -4.0157530218        4.8315797646       -0.7525496449
 C        -5.7814678294        7.0113474101       -1.8460659932
 C        -6.6347517765        5.9904233752       -2.7064844076
 C        -7.6927751810        6.5077385629       -3.7952092364
 C        -7.0833971743        6.2117144267       -5.1485943475
 C        -8.0826265366        6.3134191374       -6.2729069143
 O        -6.4922784613        4.8203756120       -2.5628088066
 O        -5.9115862316        5.9439796990       -5.2480344103
 C        -8.8598021795        5.5661765888       -3.4239651626
 C        -8.0990824539        8.1045019004       -3.6000264499
 H         7.7958780978       -6.7796301046        4.3536781329
 H         8.5462011332       -5.1585382995        3.9549019868
 H         9.3214231372       -6.1589794600        5.2290948239
 H         5.7652816288       -3.6175100427        5.0260032231
 H         5.5316206377       -2.6711858822        6.5637387629
 H         6.5141254971       -4.2904906064        8.2565848661
 H         7.8117275150       -3.1684938205        8.7993010863
 H         7.9893368988       -4.9176539871        8.7454800473
 H         9.9847670381       -3.7360058178        5.7378697379
 H        10.0528765402       -3.1276474500        7.3591601240
 H        10.1578921268       -4.8975020203        6.9794343877
 H         4.7577294039       -1.0923383173        4.8600870988
 H         6.4173110696       -0.7014434254        5.0101893951
 H         3.6809964329       -0.0953621874        0.2651344336
 H         3.7201744034       -1.6008140118        1.0339908518
 H         6.7128446730        1.0433418178        3.8330854229
 H         7.1569085880        1.2671673255        2.2108987006
 H         8.0911513255        0.1002797711        3.0641786425
 H         7.5445854731       -1.0067525930        0.8201607177
 H         6.1095630492       -1.9805641913        0.7302594855
 H         6.3016884497       -0.2764126292        0.0689881922
 H         2.1401602253        0.3301818700        2.6300067566
 H         1.6673546558       -1.2340474080        2.3745383238
 H         2.6924685477        1.7562532610       -2.8077512567
 H         3.4618742463        0.7491098837       -1.5289799443
 H        -0.7351919569        2.0131616265       -0.5361342888
 H         0.2196903913        3.1489770532       -1.0546181346
 H        -0.0951171717        3.0935333667        0.6551345395
 H         2.1768278826        3.1346170676        1.1921308224
 H         3.3948894586        1.8869736579        0.8494375395
 H         2.7938342270        2.8701004189       -0.5145067172
 H         1.6312265843       -0.2288660720       -3.7583238224
 H         3.4068391109       -0.0368644724       -4.2003187137
 H         2.1161991558       -5.4092845444       -1.6517573815
 H         1.7373698403       -4.0012876105       -0.9039401879
 H         3.0951449155       -3.5797056904       -5.5632403619
 H         3.6302715853       -1.8781630222       -5.4247647054
 H         1.8621251883       -2.4357318415       -5.2932272184
 H         5.0434441134       -3.3277831571       -3.4445719009
 H         4.1697562544       -3.8969451713       -1.9928206080
 H         4.1827272565       -4.8507061215       -3.3576203401
 H        -0.0064563145       -5.9998708569       -1.0416653544
 H        -0.4477306220       -5.1866841700       -2.5630090863
 H        -3.4982978695       -3.8654353263       -2.7145456978
 H        -4.9443674977       -4.4318726752       -2.1095674039
 H        -2.6673116467       -5.8579678244       -1.6996214217
 H        -3.5376819850       -6.1691497541       -0.3161843996
 H        -1.8503874789       -6.4976903610       -0.2299482695
 H        -2.1561426330       -3.4062500368        1.8028649362
 H        -2.5652351562       -5.0920473374        1.8215697436
 H        -0.9177895181       -4.6280920665        1.4948276100
 H        -5.6106694151       -2.4419988486       -3.0376530694
 H        -5.4615616319       -1.9581843692       -1.4205892726
 H        -5.3154308412        3.1692930615       -1.5686853622
 H        -6.3582638138        1.8574776039       -1.6574229660
 H        -3.6722249947        0.3254957935       -4.9861565598
 H        -2.3057951391        0.8046180940       -3.8378739044
 H        -3.4520557064        1.9639629403       -4.3534585568
 H        -5.8829831140       -0.4843823832       -4.1979099360
 H        -6.4958623413        0.2818673537       -2.6297381729
 H        -5.9745095428        1.2212453382       -4.0805297314
 H        -4.5718417485        1.7501979789        0.9092766899
 H        -6.2310208587        1.2538948151        0.6534524212
 H        -6.7534987966        6.3735447936        0.0083748996
 H        -5.4031930736        7.4108983130        0.1043236449
 H        -5.8503720457        4.9074030999        3.4676389998
 H        -6.8320296967        5.7049072633        2.1792781195
 H        -5.1182480445        6.3125083463        2.6151605075
 H        -3.2600708651        3.2287316884        1.0893327711
 H        -3.0759771002        4.8052643485        2.1908413973
 H        -3.8803055060        3.5470090104        2.8315586131
 H        -5.9543263973        8.0786232954       -1.8483453493
 H        -4.7080913169        6.9798417653       -2.2091906588
 H        -9.1131764438        6.4516160380       -6.0951699591
 H        -7.9413047275        7.2575161980       -6.8514204074
 H        -7.9640609749        5.4825334383       -6.9252854109
 H        -9.6780572700        5.5378003186       -4.1760202675
 H        -9.2802462263        5.6972938112       -2.4712256498
 H        -8.5485649127        4.4997374754       -3.4275581051
 H        -8.9556103850        8.4104851749       -4.1057632431
 H        -8.1627019733        8.3206181120       -2.5352562462
 H        -7.2338199983        8.6666508394       -4.0790932612
 Na       -1.5728014927       -0.4930217149       -0.7596411111
