155

 C         6.4393840886        0.2017557416       10.6091358238
 C         6.0540217498        0.5002151539        9.1609858084
 C         6.8253296387       -0.0894642038        7.9979531341
 C         5.8222446562       -0.8156306893        6.9835388016
 C         4.7381589858       -0.0603535817        6.2058799372
 C         7.3835527793        1.1974987765        7.2527706859
 C         7.9775212506       -0.9653291426        8.3312892892
 O         5.0790367134        1.1515561845        8.8503005529
 O         5.7798695531       -2.0579860454        6.9334691141
 C         3.6013239044       -1.0367686842        5.8401985689
 C         3.9751985539       -2.0860960099        4.7249037938
 C         2.9484230066       -3.3595442939        4.6099233961
 C         1.7694599079       -2.8639075685        3.6733984060
 C         0.7588853912       -3.8504676422        3.0982491408
 O         4.9159241515       -1.9520582864        4.0091973158
 O         1.6846318537       -1.6762966424        3.4938286156
 C         3.7334373554       -4.5230477126        3.8920535903
 C         2.5484167318       -3.8298961651        6.1396018958
 C        -0.7332435683       -3.4268241350        3.3156328063
 C        -1.2062843423       -2.3950327792        2.2182993645
 C        -2.4416428274       -1.5645718962        2.6317733622
 C        -2.0227642461       -0.0321206098        2.8567623438
 C        -2.3871291008        0.7272906447        4.0858994259
 C        -3.4910670146       -1.5020101008        1.5283058297
 C        -3.0490162139       -2.1163091663        3.8911249908
 O        -0.7543933189       -2.2475536592        1.1266509175
 O        -1.3974077769        0.5085138318        2.0002532341
 C        -1.8191839101        2.2154522890        3.9646184809
 C        -0.3079433282        2.0885305884        4.2832085227
 C         0.6995110947        3.3082775971        3.9409546245
 C         0.9731341016        3.1408135892        2.3453060375
 C         2.3609559484        2.6097623593        1.7729634475
 O         0.1478568369        1.1078811887        4.7989105386
 O         0.0634756409        3.2631967421        1.5586905771
 C         0.0323196168        4.7319888350        4.0987056960
 C         1.8850756674        3.2020187426        4.8108435383
 C         2.5481586893        2.6619940340        0.2135967858
 C         1.9749589256        1.4089721078       -0.4430749721
 C         2.2280112931        1.0722527876       -1.9320738721
 C         0.6718134627        0.7719992227       -2.3606969428
 C        -0.2379440100        1.9766250112       -2.3825396835
 C         2.9293072337        2.1612447148       -2.8406606461
 C         3.1060129364       -0.1873225908       -2.1177614179
 O         1.1460420298        0.8014872177        0.2052971817
 O         0.2986665352       -0.3603939620       -2.3584502337
 C        -1.6256094627        1.7903093503       -2.9952822331
 C        -2.8242749013        1.5002024531       -2.0078155799
 C        -4.3076141058        1.7438221216       -2.3606721109
 C        -4.8934847493        0.3863636630       -2.9061846763
 C        -4.5005732693       -0.0284801037       -4.2992464947
 O        -2.6281034305        0.7700598628       -1.0173005794
 O        -5.6176028888       -0.2847024103       -2.2193671917
 C        -5.1074284773        2.1050551274       -1.0962492554
 C        -4.6659030459        2.9560814037       -3.3960019120
 C        -5.7311147147       -0.6297824795       -4.9340224605
 C        -5.3350961770       -1.5976943149       -6.0468231939
 C        -6.1478514838       -1.8531880951       -7.3543821148
 C        -5.5901935789       -0.8263715803       -8.5296679603
 C        -4.3965046756       -1.3834569686       -9.4053417332
 C        -6.1586505234       -3.4545749876       -7.6994592399
 C        -7.6798964954       -1.4298553264       -7.0542778803
 O        -4.2125891460       -2.1600150310       -5.9455760537
 O        -6.1891302764        0.1905707120       -8.8270711253
 C        -3.0480912707       -1.3674426574       -8.6923722468
 C        -2.2392118634       -0.0909449760       -8.9659048750
 C        -1.0284369260        0.3159451495       -7.9640831866
 C        -1.5135537972        1.5039517960       -7.2146435501
 C        -1.4954999117        2.9289727007       -7.7854318856
 O        -2.3964371475        0.6627958503       -9.9273127294
 O        -2.1155566370        1.2859108662       -6.1521099411
 C        -0.7546301353       -0.8609414944       -6.9624037048
 C         0.2559920102        0.5294736086       -8.8843256803
 H         6.5525817709       -0.9178125577       10.5899642072
 H         7.3372218863        0.6770235109       10.9793000636
 H         5.6420838982        0.4306153257       11.2901059331
 H         4.4823218956        0.7742157469        6.9808570289
 H         5.0830815652        0.5366815811        5.4120284141
 H         8.0614430786        1.6481180031        8.0545317262
 H         6.6167995973        1.9985613859        7.0028448762
 H         7.9560582184        0.9421768782        6.3711223106
 H         7.7579567625       -1.8712989254        9.0761087530
 H         8.2686391875       -1.3515379465        7.3828641232
 H         8.8000852123       -0.5330258192        8.8683764658
 H         3.2250071025       -1.2806346041        6.7809297970
 H         2.8799929858       -0.4007148855        5.4667047533
 H         1.0737687971       -4.1615501072        2.0387658117
 H         1.0193763214       -4.7077292859        3.6759961874
 H         3.0037216506       -5.1034963374        3.2945301721
 H         4.2178193275       -5.1252474761        4.6080123844
 H         4.5895591452       -4.1582981142        3.2703244454
 H         1.5476235780       -3.6666414908        6.4197458854
 H         2.6580809958       -4.8570756012        6.0987629100
 H         3.0523699759       -3.3742357929        6.9220191607
 H        -0.8521866490       -2.9001235120        4.3325580315
 H        -1.4359355560       -4.2895169261        3.3072908287
 H        -3.5193145549        0.7542971366        4.3447796910
 H        -1.8928963616        0.2698090117        4.9246132936
 H        -3.1988783384       -0.7937038352        0.7438634704
 H        -4.3920720233       -1.1436985448        2.0148624317
 H        -3.7621813236       -2.4500183646        1.2377640290
 H        -3.0749190406       -3.1685560713        3.8950837310
 H        -2.5238930567       -1.7413107448        4.7457994743
 H        -4.0482039548       -1.7162603967        3.9795142337
 H        -2.0475659528        2.5375787845        2.9290824479
 H        -2.4411199582        2.9015963746        4.5187851789
 H         3.3067288287        3.0282362982        2.2238586189
 H         2.4733166815        1.6069364474        2.0650278919
 H        -0.3569081340        4.8799124067        5.0540077593
 H        -0.6531532211        5.0732130791        3.3247106624
 H         0.8280864438        5.4638344180        3.9228477767
 H         2.8669585322        3.5463665725        4.4426221503
 H         1.7066750832        3.7830583078        5.6654229973
 H         1.9822666123        2.1658667142        5.0699000533
 H         3.6034496966        2.7524706584       -0.1084718222
 H         2.0022376855        3.4817825078       -0.1453099518
 H        -0.3659918964        2.2353970148       -1.3060975285
 H         0.2238359374        2.6935251985       -3.0450001678
 H         4.0522986722        2.0266739188       -2.8603778437
 H         2.6186839697        3.1771074020       -2.5781126144
 H         2.6668159526        1.9943948179       -3.8744592908
 H         4.0877735871       -0.0550211109       -1.6314669558
 H         2.5168374209       -1.1168350992       -1.8516203747
 H         3.2416400567       -0.3143690713       -3.1831807177
 H        -1.8781818847        2.5769331472       -3.6812194024
 H        -1.5280877430        0.8744154613       -3.5221626076
 H        -4.3042989791        0.8675165413       -4.8612229207
 H        -3.7320661211       -0.8205119365       -4.2984236639
 H        -6.1638746845        2.0221968682       -1.0040898199
 H        -4.8383276826        3.0635455511       -0.7722090605
 H        -4.9082622573        1.3363690863       -0.3012065637
 H        -4.6848718857        3.8678450039       -2.9415379889
 H        -4.0100806845        3.0021908291       -4.3057652662
 H        -5.6878909608        2.7325672713       -3.5811032124
 H        -6.3523390900        0.1699460159       -5.1659905069
 H        -6.3391098095       -1.1706332336       -4.2000796018
 H        -4.6012185942       -2.3976262370       -9.7437291938
 H        -4.3437467583       -0.8356712901      -10.3121230476
 H        -6.9449027319       -3.8437421560       -7.0610414565
 H        -5.1216317851       -3.8374090860       -7.5902926601
 H        -6.3879559017       -3.6006491274       -8.7739735893
 H        -8.0035541686       -1.9794334803       -6.2172583112
 H        -7.8126925694       -0.3263450602       -6.9893200917
 H        -8.2354130090       -1.6246312239       -7.9432881443
 H        -3.2542025865       -1.5651991550       -7.6422276359
 H        -2.5528826352       -2.2850603274       -9.0776672132
 H        -0.5521706217        3.3255728026       -7.4690403478
 H        -1.5232884277        2.9431206405       -8.8865644068
 H        -2.2177245571        3.6281756071       -7.4046176078
 H        -0.7731125554       -1.7327053739       -7.5634249188
 H        -1.5436331812       -0.9599953392       -6.2379691633
 H         0.2196614033       -0.7771224296       -6.5338907802
 H         0.7485653408       -0.4697189780       -8.9372462586
 H        -0.1648723062        0.8735255900       -9.8338887143
 H         0.8836090030        1.4337908419       -8.5263519392
 Na       -0.8132907463       -0.3026055566       -0.3629571974
