155

 C         9.1585292155       -5.9919417968        5.0625595924
 C         7.9775308738       -5.1823440298        5.5262051923
 C         8.2162814983       -3.8888490784        6.2550700855
 C         8.1109064708       -2.8443159074        5.0149481605
 C         6.9242160104       -1.8236600643        4.9386214964
 C         7.1507298861       -3.4469957667        7.2777061173
 C         9.6856990469       -3.7226376655        6.8352179739
 O         6.7883041907       -5.5177547382        5.1852899350
 O         8.8731141840       -2.9551221553        4.0828352912
 C         6.9474128514       -1.0982964694        3.5747165281
 C         6.0224840490       -1.7389457014        2.5504541379
 C         6.2272392216       -1.2462063755        1.1137989102
 C         5.0486614000       -0.1133108359        1.1094310818
 C         3.6217704778       -0.5783795607        1.0191446048
 O         5.1825071246       -2.5559215121        2.8653871162
 O         5.2155471169        1.0607283030        1.3882487531
 C         7.6305648635       -0.7547524615        0.7382531031
 C         5.7380013773       -2.3340746439        0.1960657856
 C         2.6899671657        0.5573444613        1.3896469537
 C         1.4642243047        0.6444827230        0.4892732007
 C         1.4504292482        1.3763185497       -0.8385776269
 C         1.2536352529        0.3226734851       -2.0007738459
 C         2.3082803135        0.1368794982       -3.0415031027
 C         0.2885507299        2.4229845874       -0.8991382889
 C         2.7304333358        2.1618111060       -1.1313180309
 O         0.3678975309        0.3264900249        1.0874319805
 O         0.2276900248       -0.2931022711       -1.9255151570
 C         2.1120295728       -1.0611524675       -3.9908435625
 C         2.0904127751       -2.4786418321       -3.1928397833
 C         1.8506220226       -3.7287813160       -4.0172676265
 C         0.6443246538       -4.5310599734       -3.4279815587
 C         0.6517524693       -5.0204947162       -1.9413002142
 O         2.4249866324       -2.4349922574       -2.0258745755
 O        -0.3129113534       -4.7915132920       -4.0948466775
 C         1.5680789828       -3.6162081887       -5.5167485918
 C         3.0209711865       -4.7291095934       -3.9042088791
 C        -0.8640923829       -5.2132717101       -1.5005396342
 C        -1.2349956052       -4.1677306096       -0.4280966259
 C        -2.7160625913       -4.3270216128        0.1375469059
 C        -3.4203652828       -3.0298700757       -0.4053360966
 C        -4.4458855760       -3.0635519795       -1.4871298984
 C        -3.5685936588       -5.5209719185       -0.3180178608
 C        -2.4968083885       -4.1467443976        1.6883239727
 O        -0.4657685167       -3.2039907335       -0.1357548916
 O        -3.1474177903       -2.0158924839        0.2521925555
 C        -5.1003374923       -1.6333504906       -1.5832674328
 C        -3.9452909168       -0.7007837453       -2.0008806997
 C        -4.1976623727        0.8986994082       -1.9486700599
 C        -3.8770226218        1.4229810461       -0.4467014605
 C        -4.9360681957        2.3888932930        0.1399873351
 O        -2.9044738546       -1.2336465690       -2.2878192350
 O        -2.8403226693        1.1707440852        0.1159095046
 C        -3.2169644657        1.6466417325       -2.7680060084
 C        -5.5947030412        1.0421681696       -2.5493937575
 C        -4.8480107029        2.6074497368        1.6701709739
 C        -5.1728139779        4.0333685860        2.2529029175
 C        -4.3959980752        5.2577412934        1.8592557252
 C        -4.7779567490        5.6952493593        0.2306758276
 C        -6.2392060230        5.9144836506       -0.2175038451
 C        -4.8361548368        6.4501961006        2.7139840604
 C        -2.8849099414        5.0967726881        2.0392113707
 O        -6.1371047110        4.0761301411        3.0135154861
 O        -3.9505620498        5.6087634214       -0.6665680994
 C        -6.3476214716        6.7776048558       -1.5479447863
 C        -7.7025369841        6.7987243060       -2.2339882111
 C        -7.7257478119        6.5747417802       -3.8450499014
 C        -6.9308034445        5.1615156602       -4.1922219805
 C        -6.4140396269        4.8576625396       -5.5635714952
 O        -8.6684065779        6.9093480422       -1.5022056316
 O        -6.8330072316        4.3663934258       -3.3200569663
 C        -9.1402617765        6.1981083883       -4.2468044385
 C        -7.2472601056        7.9155339913       -4.4737164556
 H         9.9809417957       -5.3430798240        4.6194640030
 H         9.5014299742       -6.5373986992        6.0322206803
 H         8.8538996576       -6.7694817001        4.3417833934
 H         6.0760898307       -2.5047743583        5.0060685367
 H         6.8592886987       -1.0971607798        5.7709591672
 H         6.2832425235       -3.8003741965        6.8084817602
 H         7.1422979342       -2.4370597951        7.3221251936
 H         7.3681441561       -3.8556990833        8.2854209441
 H        10.3433991424       -3.8411090879        5.9014215691
 H         9.7986170705       -2.7249466247        7.2262467562
 H         9.9251741108       -4.5350877758        7.4345355864
 H         6.5064622379       -0.1098705493        3.4695175026
 H         7.9267732955       -1.1269837267        3.1205712182
 H         3.5154853886       -0.8778903752       -0.0222726735
 H         3.4327168780       -1.4244933385        1.6676701773
 H         7.6960466526        0.3396550606        0.9207049050
 H         7.7592044324       -0.7545712311       -0.3476325672
 H         8.4454073686       -1.2799683120        1.1864802021
 H         6.1736486482       -3.3596049380        0.2864212607
 H         4.7195386518       -2.5973317816        0.3231561085
 H         5.8718669442       -1.9314526793       -0.8231890458
 H         3.1172268938        1.4996555902        1.5030723811
 H         2.3543595368        0.4075420788        2.4515129572
 H         2.3474823587        1.0134678613       -3.6685930295
 H         3.3437238336        0.1735981004       -2.6123171250
 H        -0.5069001823        2.1227055582       -0.2910421827
 H        -0.1323188448        2.5222387789       -1.9179507347
 H         0.6302860975        3.3797657836       -0.6462386039
 H         2.7799112209        3.0651524779       -0.5749911504
 H         3.6239095385        1.5609840222       -0.9254682713
 H         2.7547104358        2.5848739355       -2.1613412671
 H         1.2132457596       -1.0383953742       -4.4750374695
 H         2.9083490459       -1.1187141755       -4.7139779869
 H         1.1724732352       -5.9642823644       -1.9641159454
 H         1.1108722452       -4.2437910287       -1.3605883322
 H         1.9259320057       -4.4232409439       -6.1268206877
 H         2.0679948536       -2.7190736733       -5.8075067409
 H         0.5414598069       -3.4060834526       -5.6941961273
 H         3.9823685712       -4.2139216880       -4.2853469014
 H         3.2401653977       -5.0485543626       -2.8786259609
 H         2.8760397730       -5.5965058505       -4.5521079683
 H        -0.9900425976       -6.2020850775       -1.2412551984
 H        -1.4869844670       -5.0615130072       -2.3834995343
 H        -3.9899920856       -3.2683271870       -2.4535063715
 H        -5.1678438780       -3.8549816686       -1.3582561644
 H        -3.4495631197       -5.7069892078       -1.3835488593
 H        -4.5271237266       -5.4049342319        0.0531964388
 H        -3.1343116764       -6.4806501336        0.1204677567
 H        -1.6502334222       -3.4867681139        1.9250990157
 H        -3.4654417740       -3.9540633226        2.1829037726
 H        -2.2018334936       -5.1532394508        2.0735718910
 H        -5.9263765639       -1.5789949256       -2.2813597839
 H        -5.4157114615       -1.1245123488       -0.7016426242
 H        -4.6763366377        3.3781052600       -0.3445072571
 H        -5.8451377437        1.9685683317       -0.1659340510
 H        -2.9955455497        1.1060543209       -3.6610630134
 H        -2.3241275451        1.8350655326       -2.1525613265
 H        -3.6192276033        2.5991644942       -3.0337015023
 H        -5.5225043862        0.6791854494       -3.5462534182
 H        -6.4169632487        0.4149043810       -2.0439014181
 H        -5.8898383492        2.0426371940       -2.6651292920
 H        -3.7579797094        2.3008866178        1.9907304280
 H        -5.5195465747        1.9165575697        2.1301503693
 H        -6.6724919040        4.9620915309       -0.4343026963
 H        -6.8755074532        6.3245196824        0.5642798233
 H        -4.6025337413        6.2088465805        3.7159742789
 H        -5.8867169367        6.6925109480        2.5989741658
 H        -4.1441859003        7.3201373349        2.5672060426
 H        -2.4896189111        4.4116185626        1.3263289920
 H        -2.3701466449        6.0484566854        1.9899391602
 H        -2.5833069184        4.6742250032        3.0944502958
 H        -6.1445760979        7.8096502359       -1.2761905389
 H        -5.5768025407        6.5184311041       -2.2891070496
 H        -6.8625915849        5.3966889820       -6.4224793002
 H        -5.3242397034        4.9859458989       -5.6386823405
 H        -6.6920526533        3.8143136875       -5.7059052718
 H        -9.2183433671        6.2200098111       -5.3195906015
 H        -9.8416231684        7.0038526041       -3.8755210923
 H        -9.3481889356        5.2043009806       -3.8494757818
 H        -7.2545553248        7.8029194848       -5.5992744636
 H        -7.9583347778        8.7430177606       -4.3085281770
 H        -6.3244250032        8.2093236635       -4.1142638335
 Na       -1.2692053266       -0.7511398528       -0.1104998488
