155

 C         8.8261913845       -6.4651549398        6.1473065752
 C         8.0984747278       -5.2513840395        5.6474772307
 C         8.5682097517       -3.8758356843        6.1041964271
 C         8.6432845554       -3.0777588678        4.7157334241
 C         7.4869131925       -2.2223609369        4.3083865076
 C         7.5942778976       -3.3296702882        7.1664992111
 C        10.0232507727       -3.8393607659        6.7180316277
 O         7.2301315272       -5.3699336038        4.7378775465
 O         9.5700042591       -3.1510491162        3.9354451382
 C         7.7798610062       -1.7167307305        2.8915796100
 C         6.3538864409       -1.6618419158        2.1961224676
 C         6.3176654049       -1.5343649759        0.5743027648
 C         5.1328040569       -0.6472729081        0.1066767007
 C         3.5738360976       -0.9614476306        0.2048694831
 O         5.2707527885       -1.8516854770        2.7042970323
 O         5.4188620159        0.4081140691       -0.4030973275
 C         7.6586461325       -0.8349644718        0.0354554443
 C         6.1334249914       -2.8772956552       -0.1124913911
 C         2.7960766472        0.2653088244        0.7470147868
 C         1.3810637521        0.3705871770        0.0843327166
 C         1.2844201002        0.8614319999       -1.3619942775
 C         0.8927249829       -0.3104469336       -2.3187403000
 C         1.7948979929       -0.5688203026       -3.4458334080
 C         0.0667932054        1.8930113989       -1.4405975799
 C         2.5359491279        1.6848662202       -1.8144011783
 O         0.3994338299        0.1708962538        0.7327773074
 O        -0.1109323090       -0.9093481974       -1.9608500851
 C         1.5877221058       -1.7909360246       -4.3599829893
 C         2.4917216590       -2.9256428911       -3.7299427411
 C         2.0546630046       -4.3130302795       -4.0035635581
 C         0.6350343632       -4.4379720887       -3.0792004406
 C         0.9213254494       -4.7574167018       -1.5957669410
 O         3.4598697436       -2.5984876713       -3.0550244212
 O        -0.4501426475       -4.1381143975       -3.5262432208
 C         1.6764562000       -4.2660554180       -5.5971963760
 C         3.1593684524       -5.3447576990       -3.8849967565
 C        -0.3516991795       -5.2480143186       -0.9224668280
 C        -1.2468955066       -4.1112120933       -0.3906443674
 C        -2.6916671422       -4.4480747488        0.1978818332
 C        -3.7306418123       -3.1178039102       -0.1019880987
 C        -4.6814292075       -3.0090002768       -1.2270464789
 C        -3.4782770811       -5.6244672747       -0.2959024297
 C        -2.5205612129       -4.4823378347        1.7122513524
 O        -0.8279495431       -2.9689507153       -0.3822494516
 O        -3.6315869115       -2.1857149180        0.7047652096
 C        -5.2502691270       -1.5368059387       -1.3001330574
 C        -4.2028991291       -0.3280612287       -1.5112953157
 C        -4.7251162166        1.0279138798       -1.3578277062
 C        -4.2642729896        1.4984587899        0.1339513742
 C        -5.1012868944        2.4558099348        0.9288260955
 O        -3.0785314921       -0.4314479166       -1.8614579017
 O        -3.1852726343        1.1829015294        0.5640602109
 C        -3.7958348398        2.0758105505       -2.1942957053
 C        -6.2128237075        1.1749752095       -1.6932335399
 C        -4.3764165668        3.6894874231        1.4696223205
 C        -5.3404213477        4.8109255063        1.8543810861
 C        -4.9280161579        6.3869662876        1.7763079651
 C        -4.7829149295        6.6220593070        0.2180826874
 C        -5.4680634957        7.8489005736       -0.3948474370
 C        -5.9989462046        7.2002877355        2.4875654897
 C        -3.4539069759        6.6048927539        2.4186273113
 O        -6.3469493397        4.4564962267        2.4615761324
 O        -3.9877466364        5.9771505174       -0.4556894795
 C        -5.8619762710        7.5302170491       -1.8130530805
 C        -7.3468062746        7.0534412049       -1.8672199158
 C        -7.7143128454        6.3754596154       -3.3083737935
 C        -7.0502939165        4.8637549564       -3.0910651899
 C        -6.4116927460        4.0312725246       -4.1818787797
 O        -8.1555045063        7.2410935159       -0.9915511941
 O        -7.1959995900        4.3327960201       -2.0008576714
 C        -9.2365813079        6.1337086525       -3.2228238583
 C        -7.0840404742        7.2359479057       -4.4577412763
 H         9.9482683242       -6.3533072451        6.0746615007
 H         8.5998853437       -6.7953125324        7.2403634296
 H         8.5760615539       -7.3142323630        5.4991070408
 H         6.6474741825       -2.9338263378        4.3404060663
 H         7.3399837328       -1.3824025166        4.9522843491
 H         6.6226543386       -3.5942037652        6.8007062924
 H         7.6899281482       -2.3059249953        7.2163207411
 H         7.7784591274       -3.8385539386        8.1183475273
 H        10.7658014755       -3.9915672800        5.8584199446
 H        10.2823599892       -2.8355376855        6.9688160177
 H        10.1377684864       -4.5424431466        7.5341092328
 H         8.2695455454       -0.7450189758        2.8777101920
 H         8.5767216008       -2.3398690576        2.4838614700
 H         3.3152371532       -1.0913338937       -0.8405196321
 H         3.2821499875       -1.8438090113        0.7391171710
 H         7.9752895687       -0.1061819559        0.8633693246
 H         7.4867386182       -0.3438477741       -0.9124531027
 H         8.4042966871       -1.6049569510       -0.1967256051
 H         7.0534516256       -3.4555091660       -0.0541033144
 H         5.2274183121       -3.2697305478        0.2391748528
 H         6.1194612396       -2.7121952622       -1.1677384008
 H         3.2555854765        1.2394819205        0.5889101713
 H         2.5730963628        0.0920477246        1.7962435128
 H         1.6793318888        0.3522242917       -4.0839177142
 H         2.7753504746       -0.6420189084       -3.0637182769
 H        -0.8784785106        1.3841418640       -1.2529200433
 H         0.0803513065        2.4119446303       -2.4328021966
 H         0.2366790824        2.5412872032       -0.6354560994
 H         2.5699920961        2.5001605843       -1.0753961078
 H         3.4056944990        1.0020439449       -1.8035831873
 H         2.4162346373        2.1393360180       -2.7963659161
 H         0.5474345357       -2.2025132033       -4.4381429734
 H         2.0249494698       -1.5763394891       -5.3108398413
 H         1.7442075138       -5.4909254161       -1.6192874974
 H         1.3728567152       -3.9032338749       -1.0861095492
 H         1.2107352715       -5.2429607130       -5.8449249071
 H         2.5361880620       -4.2101761859       -6.2008374129
 H         0.9083842141       -3.5861747680       -5.8316331024
 H         3.8769251654       -5.1927071841       -4.7873219687
 H         3.5633112426       -5.3201143908       -2.8700118528
 H         2.6885811219       -6.2723404746       -4.1077490447
 H         0.0233434497       -5.9571676003       -0.1851942820
 H        -0.8272381648       -5.8867321985       -1.5746458860
 H        -4.2142645782       -3.3714765670       -2.1318426223
 H        -5.4950077111       -3.6758677414       -1.0416197622
 H        -3.6635019786       -5.5647154393       -1.3956882781
 H        -4.4281665083       -5.8138940501        0.2239254961
 H        -2.8666596486       -6.5319314509       -0.0930037385
 H        -2.1858311349       -3.5155289130        2.1494210297
 H        -3.4653479048       -4.6431207043        2.1942190750
 H        -1.9116407932       -5.3651646008        1.8802355757
 H        -5.9751695406       -1.4463348917       -2.0818195096
 H        -5.6629621825       -1.2827808867       -0.3184355136
 H        -5.9715393357        2.7172043559        0.4177933722
 H        -5.4927634730        1.8666549040        1.8113334768
 H        -3.6991701313        1.8478184985       -3.2189777621
 H        -2.7751986426        2.0778745822       -1.7760813536
 H        -4.2568874923        3.0482266438       -2.1113891385
 H        -6.3624019729        0.8180177239       -2.6791200153
 H        -6.9246285062        0.6539696154       -1.0188039345
 H        -6.7004456178        2.0649797675       -1.7286154494
 H        -3.6252306131        4.0110198186        0.7377531987
 H        -3.8030188711        3.4420038516        2.3817266496
 H        -6.4234008247        8.2392933357        0.1217009332
 H        -4.6571764734        8.6037507143       -0.4229206229
 H        -6.0070246676        7.1563772610        3.5502092812
 H        -7.0432054089        6.9279295019        2.1664148631
 H        -5.8238112738        8.1470403342        2.0573258372
 H        -2.8049120967        5.9261887145        2.0052407085
 H        -2.9655503186        7.5796884715        2.3323645113
 H        -3.3986249816        6.4144653320        3.5741171249
 H        -5.6740319132        8.3995237181       -2.4242758864
 H        -5.3108364900        6.7196737272       -2.2872223023
 H        -5.6084922342        3.3862570774       -3.6788999906
 H        -6.9653164302        3.2891624776       -4.7519477919
 H        -5.9724265032        4.7801485306       -4.8869684664
 H        -9.4977443617        5.2701372621       -3.8417832265
 H        -9.7333350022        7.0668955477       -3.5427518506
 H        -9.4375544719        6.0180249155       -2.1874113182
 H        -7.6512882203        7.1893024918       -5.3895750819
 H        -7.0179377823        8.3258714639       -4.2525350489
 H        -6.1701630490        6.8176894700       -4.6990445689
 Na       -1.5321167639       -0.6293945499       -0.1018468469
