155

 C         6.5376073164        0.2965780388       10.4864671216
 C         6.0411980257        0.6908679920        9.0546395425
 C         6.7889564482       -0.0886870640        7.9401598027
 C         5.8261525601       -0.9995035746        6.9869438165
 C         4.9600030074       -0.2302254712        5.9557677720
 C         7.4563276063        0.9871286595        7.1109944714
 C         7.8368783501       -1.1247733223        8.3950132517
 O         5.0593490197        1.3893696878        8.8826570314
 O         5.6766916229       -2.1238302582        7.2562006759
 C         3.6097458398       -0.9333206736        5.5768056023
 C         3.8928501221       -2.0285087227        4.6283351808
 C         2.9034371263       -3.3941212534        4.6170089587
 C         1.7137707900       -2.8149348270        3.7432182796
 C         0.7915989097       -3.9358047730        3.1003520727
 O         4.8481537294       -1.9787408908        3.8509503962
 O         1.4720500074       -1.6230223585        3.5503837444
 C         3.7409594268       -4.4657298433        3.7646624157
 C         2.4704108832       -3.8437639445        5.9879351612
 C        -0.6610377693       -3.6099211648        2.9971884740
 C        -1.1822057515       -2.4221642597        2.1421100384
 C        -2.3751151504       -1.5946119986        2.6102090755
 C        -1.8976631826       -0.0576819326        2.7968069377
 C        -2.3678990467        0.8393504616        3.9155576256
 C        -3.4113148757       -1.4498669490        1.4208178117
 C        -3.1527177178       -2.1278500062        3.7687177745
 O        -0.6241913682       -2.1511371140        1.0606776652
 O        -1.2502762852        0.4854908763        1.9124244993
 C        -1.5804841040        2.2144701670        3.9339937187
 C        -0.1145782191        2.0835785722        4.1953852854
 C         0.8790888856        3.2667886043        3.8232863672
 C         1.3117541615        3.1027473406        2.2882156203
 C         2.6770821809        2.8086814119        1.7878008200
 O         0.4714262697        1.0793669884        4.5817776800
 O         0.4062239499        3.3585217268        1.5022474508
 C         0.2359571188        4.6866832300        3.8618327756
 C         2.0734400263        3.1640993246        4.6626982002
 C         2.7751985878        2.6666831477        0.2592525168
 C         1.9936963728        1.5007481509       -0.2151975030
 C         2.0836609841        1.0164195824       -1.6559725214
 C         0.5961601822        0.7096098604       -2.2597291312
 C        -0.3285249653        2.0031537846       -2.4252493492
 C         2.7814340338        1.9017146924       -2.6742322466
 C         2.7597205951       -0.3283690302       -1.5299374994
 O         1.2702564114        0.8443393107        0.5139646175
 O         0.2025313827       -0.4345411045       -2.5071656145
 C        -1.8308149684        1.9117444263       -3.0603384614
 C        -2.8415132809        1.5268654998       -2.0193911928
 C        -4.4405879276        1.8010940283       -2.3087069514
 C        -5.0523585367        0.3973102607       -2.7852334277
 C        -4.5674706165       -0.2159905936       -4.1001542385
 O        -2.5391662364        1.0086151663       -0.9803908362
 O        -5.7471352157       -0.1821978938       -1.9814778237
 C        -5.0062432455        2.2874568527       -0.9971967490
 C        -4.6513385767        2.7563562896       -3.5586447833
 C        -5.7359098031       -0.3710535851       -5.1883645795
 C        -5.3806372360       -1.6232443192       -6.0965849991
 C        -6.2801575452       -1.8880840645       -7.2947680049
 C        -5.7356421037       -0.8336235862       -8.4560499327
 C        -4.5410877679       -1.2902287782       -9.2441697687
 C        -6.0300556473       -3.2472028615       -7.8671030500
 C        -7.7240120316       -1.5146227682       -7.0205296053
 O        -4.3951253002       -2.2584040900       -5.9150913843
 O        -6.4681090311        0.0724391630       -8.8316263643
 C        -3.2204383576       -1.2606013827       -8.3320908123
 C        -2.3029844776       -0.1639619874       -8.8580151341
 C        -1.0582600975        0.3223621084       -7.9066993044
 C        -1.6727479613        1.4824100153       -7.1440112696
 C        -1.8262408363        2.7796598102       -7.8718555812
 O        -2.4984478361        0.4403855091       -9.8512329166
 O        -2.0399641166        1.3043665549       -5.9923436055
 C        -0.5415227235       -0.8431001684       -6.9601342562
 C         0.0609966991        0.7670561128       -8.8431179964
 H         6.5737218622       -0.7306889715       10.5843319652
 H         7.5417676973        0.7111864257       10.6689890263
 H         5.8929608928        0.7726350305       11.2434321897
 H         5.0110630131        0.7486680378        6.2370606934
 H         5.5418329916       -0.1239287772        4.9913292893
 H         8.3807164145        1.2970778895        7.5467745460
 H         6.8302433471        1.8118752420        6.8676220882
 H         7.6198283629        0.4909990615        6.1256789197
 H         7.4803583118       -2.0571959410        8.6821605186
 H         8.5147550897       -1.3927347438        7.5299380139
 H         8.3874046656       -0.7382563447        9.2850607831
 H         3.2276793523       -1.2437428168        6.6188522195
 H         2.8938598151       -0.0892730468        5.2413941623
 H         1.1858832187       -4.0867375879        2.1500533851
 H         0.9668567571       -4.9322703874        3.5806791450
 H         3.3674619029       -4.5572473724        2.7679071822
 H         3.6723613319       -5.4919568464        4.2425007265
 H         4.7670612666       -4.2120168587        3.8132776639
 H         2.1113889345       -2.9660070076        6.5953401870
 H         1.7434476991       -4.7044661325        6.0060668227
 H         3.3827439554       -4.1482664112        6.5870384166
 H        -1.0910709335       -3.4619193565        3.9513007615
 H        -1.0446215766       -4.5363272115        2.5580215468
 H        -3.4001935781        1.0204015995        3.8785575753
 H        -2.1860519422        0.4729647195        4.9910698035
 H        -3.4111622166       -0.4412623885        1.0121182051
 H        -4.3974211039       -1.6716120475        1.8035857506
 H        -3.2275886342       -2.2332291253        0.5756775147
 H        -3.5383176991       -3.1686230542        3.4807278245
 H        -2.5159650761       -2.1871930623        4.6788586362
 H        -4.1053084634       -1.5718146599        3.9118590003
 H        -1.8628514424        2.8245370621        3.0823826011
 H        -2.0863859191        2.8050097813        4.7242756539
 H         3.3749389978        3.5357856064        2.1208179850
 H         3.2142724788        1.9123143558        2.2595273755
 H        -0.0665775114        4.8051610205        4.9588453009
 H        -0.7008141434        4.8463006321        3.2761523459
 H         0.8767564677        5.5333195111        3.5298756390
 H         2.7341861226        3.9854677391        4.5306884429
 H         1.8695954090        3.1610686183        5.7574022951
 H         2.6820487679        2.3387618897        4.2892489198
 H         3.8020255372        2.5143363546       -0.0667528020
 H         2.3449920733        3.6032636716       -0.2583706900
 H        -0.4983884188        2.1726031547       -1.3610813113
 H         0.1279871783        2.7969293644       -3.0472940135
 H         3.5832231036        2.3761512942       -2.2427454178
 H         2.1074935131        2.5350178998       -3.1847323568
 H         3.3350037548        1.3282183854       -3.4117696824
 H         3.6761239131       -0.1817038711       -0.9921048932
 H         2.1015994843       -0.9398353279       -0.9729406001
 H         2.9600623937       -0.8657856475       -2.4685291229
 H        -2.1245916754        2.9490142598       -3.3960017143
 H        -1.8790981407        1.1831278049       -3.9504389412
 H        -3.6865220141        0.3346786034       -4.5165445102
 H        -4.4281245650       -1.2434206163       -3.7873966250
 H        -6.0646968534        2.5553454227       -1.0179843625
 H        -4.4929264393        3.2388323990       -0.6726546425
 H        -5.1850326321        1.5517142589       -0.2912231325
 H        -4.2866020481        3.7590179961       -3.1512178082
 H        -3.9452068119        2.4831183849       -4.3139209055
 H        -5.7102394307        2.8317127262       -3.9560793307
 H        -5.9007181539        0.6371055680       -5.7569812828
 H        -6.6505246543       -0.5089714217       -4.6023382795
 H        -4.6781771811       -2.2399846347       -9.7430266138
 H        -4.4264241015       -0.5712432280      -10.0887797064
 H        -6.4084726286       -4.0096742998       -7.1515719013
 H        -4.9601961889       -3.2727555402       -7.9683482722
 H        -6.5017243188       -3.3289944740       -8.8365583029
 H        -8.1209985390       -2.0856751559       -6.1459737019
 H        -7.7038966123       -0.4932777226       -6.9564372458
 H        -8.3805628901       -1.6680683221       -7.8787432121
 H        -3.6101593756       -0.8473266138       -7.3896418818
 H        -2.8201785178       -2.2433969733       -8.1138086661
 H        -0.9737284936        3.4868511825       -7.8314495036
 H        -2.1374487310        2.5326813970       -8.8766041365
 H        -2.6096874381        3.3756025554       -7.3254065552
 H        -0.3728999489       -1.7214974982       -7.6105246576
 H        -1.3033450253       -1.0724900646       -6.2081102502
 H         0.4293497157       -0.5268448989       -6.5986967638
 H         0.8742512351        0.0897813576       -8.6063488960
 H        -0.3350122236        0.7687828739       -9.8785923713
 H         0.3296270009        1.7488018438       -8.6827834426
 Na       -0.7668130412       -0.3664715968       -0.1844759856
