155

 C         8.7199463986       -6.4157992413        6.2449223089
 C         7.9619484189       -5.2174292236        5.7338193485
 C         8.7451888691       -3.8573476767        5.7221520445
 C         8.6780353133       -3.1213188901        4.2863866230
 C         7.4280190936       -3.2956011520        3.4348975884
 C         8.0007845945       -2.8845382221        6.6942666683
 C        10.2370398258       -3.9422815686        6.1874845380
 O         6.8546785927       -5.3135383991        5.3134868802
 O         9.5440201554       -2.3847549150        3.8439364006
 C         7.6509738724       -2.9021210467        1.9662046074
 C         6.5257177090       -1.8958133430        1.4400576474
 C         6.4511580387       -1.7803149574       -0.1922167645
 C         5.3191743634       -0.6386976500       -0.3719636463
 C         3.8601534886       -1.0420268072        0.2051944180
 O         5.9932953973       -1.0465738732        2.1115703375
 O         5.5659359769        0.4731285273       -0.8043763980
 C         7.8222069483       -1.3012048327       -0.7674835791
 C         5.9958922559       -3.1961793475       -0.8041773384
 C         3.0007507684        0.1228236962        0.5906040807
 C         1.7083518802        0.1899220984       -0.1984515151
 C         1.5360035325        1.0274309753       -1.5066519559
 C         0.7554752587       -0.0571886605       -2.5361847624
 C         1.6798334467       -0.5796976914       -3.6248128523
 C         0.4542971168        2.0720013420       -1.1593772339
 C         2.8969440321        1.6122184982       -2.1123678871
 O         0.6612771993       -0.3012280544        0.2832896204
 O        -0.4208392079       -0.3821756994       -2.4454182608
 C         1.3560303162       -2.0101495700       -3.9557191157
 C         2.2867549853       -3.0992838612       -3.4618851582
 C         1.8484063553       -4.6422953806       -3.6647324654
 C         0.7441262535       -4.7806213515       -2.7013411941
 C         0.8381193339       -5.2574280787       -1.2015522685
 O         3.3706270699       -2.9177364139       -3.0014934863
 O        -0.4048280615       -4.4581856628       -3.0313235197
 C         1.2690603562       -4.7467993995       -5.1070129006
 C         3.0426537929       -5.6003616232       -3.3133681177
 C        -0.5454200037       -5.4578333350       -0.4567409492
 C        -1.3086280870       -4.1394422914       -0.3692486550
 C        -2.8127995172       -4.3886653968        0.2950756668
 C        -3.5351719716       -2.9540312968        0.1681699675
 C        -4.7029264277       -2.7858184541       -0.7180325184
 C        -3.5398051889       -5.5073576607       -0.4923537971
 C        -2.6971617252       -4.8130014201        1.7616329189
 O        -0.8797367231       -3.0715054596       -0.7171431353
 O        -3.1332740586       -2.0072312717        0.8551264134
 C        -5.3504146624       -1.4480007799       -0.5453243393
 C        -4.5305487186       -0.2778346259       -1.1570063308
 C        -5.0068182497        1.1510740500       -0.7570301566
 C        -3.9618067614        1.5739797942        0.3568857644
 C        -4.2507301371        2.7436731636        1.3177922509
 O        -3.5964454607       -0.4620520530       -1.8811720542
 O        -2.8307270213        1.0391149467        0.3517164571
 C        -4.7030448799        1.9689199636       -2.1346030155
 C        -6.4799232325        1.4837130144       -0.2634766484
 C        -4.5642413463        4.1212979679        0.6573996858
 C        -5.2579879779        4.9341430241        1.7189655016
 C        -5.1085647076        6.5222880139        1.5527984868
 C        -4.4965540943        7.0666997938        0.1888675899
 C        -5.1592389703        8.3447740254       -0.4579271677
 C        -6.5207694445        6.9639171601        2.0035470914
 C        -4.1037687527        7.0606663134        2.6346834533
 O        -5.8532771666        4.4663431090        2.6479653911
 O        -3.5063012650        6.4790456523       -0.2652210002
 C        -5.8033886943        8.0620025995       -1.8607286580
 C        -7.2094609167        7.3739695809       -1.6868205370
 C        -7.7537249778        6.4871302267       -2.7997973881
 C        -7.1756531235        4.9935642875       -2.7237818839
 C        -7.4639186957        3.9528819856       -3.9213706265
 O        -8.0012702533        7.5315357973       -0.7097265715
 O        -6.7442138632        4.5235015618       -1.7342510181
 C        -9.2803025888        6.3040253201       -2.4629967119
 C        -7.3631659476        7.0778798749       -4.1917226765
 H         9.6629658468       -6.4294689768        5.7945462829
 H         9.0069520317       -6.3388431679        7.2505168266
 H         8.2939648054       -7.3704440695        6.0204602398
 H         6.9389148145       -4.2619334509        3.4285965349
 H         6.6264989536       -2.6658347757        3.7764384264
 H         6.9461956317       -3.2224582262        6.6472674857
 H         8.0406953554       -1.8354369463        6.3718818506
 H         8.2534153376       -2.8348504947        7.8251181142
 H        10.8231923131       -4.5230593603        5.4630890131
 H        10.5977765602       -2.9604129649        6.4338353028
 H        10.4499040075       -4.4666609774        7.0666251000
 H         8.5360123925       -2.2279695567        2.0695708124
 H         7.9170312544       -3.6571917597        1.1712093770
 H         3.3598265491       -1.7125126989       -0.5403330912
 H         3.9957543788       -1.7258475526        1.0404023220
 H         8.2194947944       -0.4430325587       -0.2426376517
 H         7.7504678809       -1.0300809473       -1.8070247621
 H         8.5221331172       -2.0782461958       -0.6328070506
 H         6.8569209002       -3.9034698664       -0.7369941497
 H         5.2317043710       -3.6913603153       -0.2320488821
 H         5.5410755306       -2.8983491276       -1.7685153728
 H         3.5705696735        1.0007712253        0.4389449040
 H         2.8339327544        0.0618806813        1.6963124615
 H         1.7441469069        0.1373928479       -4.5206277267
 H         2.6778901745       -0.6327630687       -3.2525067779
 H        -0.3796860995        1.5313829830       -0.7808094358
 H         0.1660962922        2.6206438341       -2.0982059393
 H         0.8235064944        2.7925372760       -0.4407171853
 H         3.1962076777        2.4651812539       -1.5338359102
 H         3.7142435151        0.8756647410       -1.9127018934
 H         2.8137145622        1.7583892270       -3.2131535626
 H         0.3717281652       -2.2590250832       -3.7111810513
 H         1.2620106651       -2.1463820328       -5.0261858733
 H         1.5338808641       -6.1095992851       -1.1471720250
 H         1.2737285277       -4.4632795948       -0.5908274858
 H         1.1134098462       -5.8124204860       -5.3698523146
 H         1.8774829248       -4.2377956558       -5.8532726249
 H         0.3015769170       -4.2589991722       -5.1793312246
 H         3.9534028051       -5.1581016143       -3.5098353893
 H         3.0183947350       -5.7823439680       -2.2528347346
 H         2.7355626399       -6.5417723683       -3.8060425037
 H        -0.3780712576       -5.7723506651        0.5791460433
 H        -1.0803078501       -6.2455467271       -0.9670643314
 H        -4.4534670394       -2.9820625975       -1.8174879085
 H        -5.3481878628       -3.6612350373       -0.5141798985
 H        -3.4513975943       -5.3424477629       -1.5846527075
 H        -4.5229815774       -5.6800965575       -0.2481357182
 H        -3.0487792602       -6.5346024631       -0.2981837189
 H        -2.0793087458       -4.1099325213        2.2584099375
 H        -3.7028713827       -4.8992214008        2.1848833018
 H        -2.2116522254       -5.8166485964        1.8707851623
 H        -6.3100910391       -1.3482898287       -0.9650636718
 H        -5.4341821209       -1.1032936398        0.4944235577
 H        -5.1538288031        2.5808693552        1.9112012460
 H        -3.4001345160        2.8553804201        2.0142195887
 H        -5.0158443289        1.4271124053       -3.0013793710
 H        -3.5885997954        2.0792116684       -2.1887150737
 H        -5.1055282501        2.9710345108       -2.1098170538
 H        -7.2063900986        1.0767237115       -0.9974233543
 H        -6.9873766853        0.9055741221        0.5519980014
 H        -6.7639799692        2.5480837010       -0.1112640327
 H        -5.2496139871        3.9478113822       -0.2747633060
 H        -3.6489727225        4.6020761422        0.4459585078
 H        -5.8674502363        8.7167845549        0.1657910634
 H        -4.4142332258        9.1222111659       -0.3717249145
 H        -6.6432338434        6.8304218750        3.0396128502
 H        -7.2747800683        6.5702516531        1.3617116017
 H        -6.5483602486        8.0830097214        1.9325181172
 H        -3.0024428935        6.9603290655        2.4655695882
 H        -4.1886606771        8.1374674711        2.7198802310
 H        -4.2013296789        6.6995530023        3.6604955200
 H        -5.9250349207        9.0331136453       -2.3511948201
 H        -5.2724910907        7.2975612155       -2.4968248180
 H        -6.6681550313        4.1124694404       -4.6049727096
 H        -7.3841814975        2.9222630637       -3.5358719652
 H        -8.2712556331        4.0912450603       -4.5624755624
 H        -9.7780697865        5.7087976896       -3.1842820063
 H        -9.6518806795        7.3275336852       -2.6829108235
 H        -9.3041976414        5.8789032722       -1.4518579830
 H        -7.1395642944        8.1886821417       -4.1107738498
 H        -6.4654584504        6.5632105811       -4.5752189314
 H        -8.0564926537        6.9154589167       -4.9994682777
 Na       -1.5798088952       -0.9161950826       -0.3953603352
