155

 C         8.7511221396       -6.4803910901        6.1291613855
 C         8.0352525911       -5.1941984550        5.7186164610
 C         8.7235942508       -3.8270870578        5.5994425454
 C         8.6610053765       -3.1254835721        4.1345281013
 C         7.4521705397       -3.4533067775        3.2922430267
 C         7.9312333339       -2.7868797708        6.4332522323
 C        10.2193504284       -3.7835871860        6.0380518781
 O         6.7971414212       -5.1915537165        5.5661310902
 O         9.5471927489       -2.3929796750        3.8298079472
 C         7.5312584358       -3.2694380389        1.7728419026
 C         6.7481408436       -1.9790482800        1.3326741723
 C         6.5094577017       -1.7963387377       -0.2344110403
 C         5.3140633774       -0.6594635976       -0.3727186381
 C         3.8380704834       -1.0270273535       -0.0685677818
 O         6.2461525972       -1.1804431921        2.0999175540
 O         5.5934200557        0.3733014568       -0.9575711389
 C         7.7041280124       -1.2589640620       -1.0821898503
 C         5.9700931497       -3.1163275266       -0.8678965955
 C         3.0960862195        0.2453008488        0.4680640225
 C         1.6867133938        0.1844850426       -0.0587331420
 C         1.5061814858        0.9456201224       -1.4695656174
 C         0.8517156186       -0.0577977798       -2.5311791880
 C         1.6431108452       -0.7278643314       -3.7749210388
 C         0.5102341292        2.1596399741       -1.2286442850
 C         2.7767799531        1.5942934366       -2.0461723589
 O         0.7799759980       -0.4729808045        0.3825666929
 O        -0.3391560525       -0.3212722844       -2.4887884675
 C         1.2333341634       -2.1901506688       -4.0365292730
 C         2.1885979117       -3.2005067387       -3.3750792299
 C         1.8736079845       -4.6661216508       -3.5969788563
 C         0.5560226317       -4.7648224165       -2.5356304634
 C         0.8558264098       -5.0481841323       -1.1305081041
 O         3.0600959541       -2.8151631203       -2.5662955134
 O        -0.5532365899       -4.6861292724       -2.9723327394
 C         1.3568578212       -4.9874798858       -5.0324752948
 C         3.0721495419       -5.6273141930       -3.3786548572
 C        -0.4542788360       -5.4603010175       -0.4264260131
 C        -1.4348407989       -4.2169192076       -0.3448873453
 C        -2.8700683497       -4.4048548191        0.2697090681
 C        -3.5780164018       -3.0076975448        0.4071603064
 C        -4.7868260925       -2.7302870626       -0.5330775537
 C        -3.6243458134       -5.4231167049       -0.6136606647
 C        -2.6093061034       -4.8167289877        1.7672463766
 O        -1.0423405394       -3.1500239323       -0.7942944860
 O        -3.1320645644       -2.1467533799        1.1386424695
 C        -5.4720451426       -1.4127243564       -0.2564576948
 C        -4.5814199932       -0.3045546183       -0.9900673738
 C        -4.7848834467        1.2164812646       -0.7248018513
 C        -3.5463355823        1.6477910563        0.2909494751
 C        -3.9458024722        2.5549828864        1.4644028570
 O        -3.7361872016       -0.7444673257       -1.7828098663
 O        -2.4337419246        1.3514931405        0.0079250526
 C        -4.7632190993        2.0143340490       -2.0765269119
 C        -6.1698955829        1.4436925910       -0.1043845626
 C        -3.9792533888        4.0953284647        1.0349737221
 C        -5.0732869780        4.9526371007        1.8378255492
 C        -5.0492782399        6.5249412091        1.7337879110
 C        -4.5299688174        7.0470527344        0.3510228400
 C        -5.2187597095        8.2572260995       -0.5049075427
 C        -6.4221581966        7.1152014683        2.0051967946
 C        -4.0573727791        7.0251970036        2.7873050734
 O        -5.7206058859        4.4531081864        2.7472964331
 O        -3.6239136202        6.4918882586       -0.2086047895
 C        -5.8162424240        7.7714122016       -1.8410310092
 C        -7.3376745689        7.3788689669       -1.6829681042
 C        -8.0087432489        6.5992239564       -2.8673179292
 C        -7.4043391865        5.0583769984       -2.8061912245
 C        -7.6964978077        4.1612986202       -3.9448227749
 O        -7.9624238784        7.7392107538       -0.7438107849
 O        -6.7226656816        4.7467903533       -1.7644383816
 C        -9.6590981002        6.5362960485       -2.8682626303
 C        -7.6715880123        7.2239769526       -4.2734044773
 H         9.7213261746       -6.7900927457        5.6337992147
 H         9.0082728370       -6.4544199464        7.2375840980
 H         8.0828471024       -7.3237329367        6.0313790517
 H         6.9340861395       -4.4003149383        3.4633419036
 H         6.6225545301       -2.7642137836        3.5755188284
 H         6.8848240971       -2.6886749268        6.1922123323
 H         8.4627049056       -1.8495724727        6.3779475810
 H         7.9133578792       -3.0058510696        7.4710153699
 H        10.8264161869       -4.5509280038        5.5259764791
 H        10.6612597118       -2.8032376736        5.9029686869
 H        10.4298894060       -3.8897821648        7.1166257423
 H         8.5476979817       -3.2504076135        1.3684894312
 H         7.0114032289       -4.0424439538        1.2397311230
 H         3.3727998922       -1.3575732721       -0.9735267149
 H         3.7795874230       -1.9190575016        0.5524516158
 H         7.8796334794       -0.1884553782       -0.8145059164
 H         7.4213065056       -1.3198995137       -2.1454818053
 H         8.7091262306       -1.7519923541       -0.9280864298
 H         6.8495483385       -3.7152153006       -0.8493664695
 H         5.2159407434       -3.5753070644       -0.1782643882
 H         5.4651640345       -2.9796516882       -1.7855088482
 H         3.6763240978        1.1554174047        0.1338257977
 H         3.1635277821        0.2835026283        1.5138946441
 H         1.3163836705       -0.0753529332       -4.5166731216
 H         2.7530039036       -0.6395819534       -3.8053375882
 H        -0.5141253459        1.7912472843       -0.9561794020
 H         0.4547921020        2.6694029096       -2.1860173226
 H         0.9224133936        2.8699374638       -0.4886338958
 H         3.2708003536        2.2907057140       -1.3362019307
 H         3.6189974662        0.9780609618       -2.3326351112
 H         2.3954555429        1.9683608939       -2.9617013200
 H         0.1084357153       -2.2313827719       -3.7607799044
 H         1.0712530133       -2.5203618688       -5.0634155032
 H         1.5386475406       -5.8968153759       -1.0980200359
 H         1.2529836364       -4.2261303365       -0.4992147365
 H         1.2980813030       -6.0692071158       -5.2138171749
 H         1.9658779620       -4.4836758719       -5.8076524265
 H         0.3153723856       -4.6312022787       -5.2061313634
 H         3.9725328044       -4.9118238286       -3.6012123592
 H         3.1778811797       -5.9236261411       -2.3126713207
 H         2.9537193297       -6.5000706598       -3.9894118164
 H        -0.0950490511       -5.8065567056        0.5471417235
 H        -0.8928207149       -6.2776781643       -0.9687055392
 H        -4.4304888613       -2.8309489942       -1.5143367923
 H        -5.5212154598       -3.5229094783       -0.4832265288
 H        -3.9049473743       -5.1495460668       -1.6350153398
 H        -4.6197321418       -5.6471820445       -0.0571148793
 H        -3.1808438249       -6.3687888631       -0.5552418929
 H        -2.0467415999       -4.0860102375        2.3783041235
 H        -3.5830378253       -5.0204786556        2.1343151729
 H        -2.0103870511       -5.6871805863        1.7848192312
 H        -6.5139313080       -1.3774605297       -0.6964006272
 H        -5.5753944062       -1.1606714987        0.7806559550
 H        -4.9964324989        2.3855661912        1.7306493181
 H        -3.2710478662        2.4971516929        2.3300726222
 H        -5.7831107270        1.8013964619       -2.4941068179
 H        -4.0310218187        1.6502972620       -2.7926115110
 H        -4.6423175077        3.1114780221       -1.9476940973
 H        -7.0264063607        0.9650416307       -0.4740267582
 H        -6.2181748265        1.0386216369        0.8780435498
 H        -6.3340418809        2.4438002142        0.0602353626
 H        -4.2491523911        4.1759679871        0.0319903209
 H        -2.9575033600        4.4439223626        1.2175840953
 H        -5.9112185057        8.9028939488        0.2156471720
 H        -4.4333356188        9.0452736506       -0.6495168238
 H        -6.9154851107        6.5228592921        2.8171262653
 H        -7.0402931605        7.0841474519        1.0714892662
 H        -6.3751472161        8.0934022623        2.3831837661
 H        -3.1066716005        6.5906847111        2.7381325649
 H        -3.8510621348        8.0945901543        2.7516605444
 H        -4.2443794070        6.6593510947        3.8259353005
 H        -5.7854354640        8.6105651974       -2.5402293042
 H        -5.2358004378        6.9443799343       -2.1757227121
 H        -7.6274705933        4.5684097088       -5.0103085097
 H        -7.2430848037        3.1666781833       -3.8594430966
 H        -8.8316407431        4.0313376561       -3.8027542122
 H       -10.0026680520        6.2662011321       -3.8967033408
 H        -9.9917935847        7.5230334362       -2.7493660518
 H        -9.9127710346        5.7637846681       -2.2013478139
 H        -8.3272166155        8.0287266083       -4.4905645382
 H        -6.6500447493        7.6276650747       -4.3756954824
 H        -7.6801073036        6.4641821798       -5.0507044561
 Na       -1.5263500496       -0.7463123273       -0.5278819687
