155

 C         8.8577555500       -6.2201771102        5.6971774619
 C         7.9348154743       -4.9945071602        5.7240103885
 C         8.6724830850       -3.5965182376        5.4059704410
 C         8.6727075605       -3.4361210973        3.8613893836
 C         7.4028974650       -3.8535490015        3.0429793820
 C         7.7857039777       -2.5072108933        6.0231243506
 C        10.1513021624       -3.3893205539        5.8039028352
 O         6.7307309641       -5.0777109317        5.7971095061
 O         9.5756142649       -3.0234043491        3.2165254066
 C         7.5262256980       -3.3730790633        1.5610313572
 C         6.8172441268       -2.0865756853        1.0818969241
 C         6.5094024142       -1.9815848203       -0.4552788748
 C         5.3364438470       -0.7990793040       -0.4977305150
 C         3.8793953787       -1.1495649262        0.0284271742
 O         6.4028114038       -1.2038999177        1.7689806415
 O         5.6201668602        0.3094843583       -0.9624816233
 C         7.8478962602       -1.4925138139       -1.0653095719
 C         6.0940017622       -3.2382514481       -1.1663547684
 C         3.0687980480        0.1403155856        0.4203436464
 C         1.6877184087        0.2275413894       -0.3687309212
 C         1.5757512779        0.8777892444       -1.7498338119
 C         0.9695219139       -0.0936462366       -2.8346041469
 C         1.8568379036       -0.6463450495       -3.8976702588
 C         0.6487994691        2.0313821777       -1.5746938293
 C         2.8405339091        1.5336342731       -2.1778925835
 O         0.7318070650       -0.2338832722        0.2008935369
 O        -0.1703239352       -0.5195683564       -2.6473201120
 C         1.4426913046       -2.0664059780       -4.3372094196
 C         1.7993485368       -3.1227927876       -3.2595310890
 C         1.6169641666       -4.7461971021       -3.5385213328
 C         0.4111484835       -5.2299016215       -2.6633962360
 C         0.7218495128       -5.1307069541       -1.0549966186
 O         2.1723587483       -2.7850099623       -2.1413103539
 O        -0.6361173321       -5.6380947848       -3.0823011164
 C         1.5032575546       -5.0039770684       -5.0518468833
 C         2.8709882319       -5.4920162529       -2.9708026246
 C        -0.5385393160       -5.3135686067       -0.1075043435
 C        -1.4969870870       -4.1474142449       -0.1077251716
 C        -2.8539637657       -4.2969955885        0.4706401423
 C        -3.5674289716       -2.9201111074        0.6320349587
 C        -5.0405785614       -2.6386664561        0.0859694570
 C        -3.5330800182       -5.2589646500       -0.5644056262
 C        -2.7765112904       -5.0220828468        1.7966958097
 O        -1.1403375146       -3.0948988364       -0.5816996770
 O        -2.8802023273       -2.0163806465        1.0738184175
 C        -5.5251809133       -1.2122939583        0.2245593985
 C        -4.4876905967       -0.2772074755       -0.4438540671
 C        -4.6094276900        1.2547545954       -0.3024154160
 C        -3.2500990883        1.7771232642        0.5116563684
 C        -3.3656656430        2.5935432649        1.7616195305
 O        -3.6596177697       -0.7541929704       -1.2578538024
 O        -2.2081356992        1.5437884731       -0.0226228617
 C        -4.6431269371        1.8704942910       -1.7432127229
 C        -5.8924770512        1.7516563718        0.3788438973
 C        -3.3054874864        4.0980399983        1.4457671326
 C        -4.5944802091        4.8099621464        1.9516993398
 C        -4.8000529290        6.4045987459        1.8878995535
 C        -4.5923181000        6.9307756337        0.4181974237
 C        -5.5066125389        7.9900475423       -0.1822372622
 C        -6.2516221750        6.6381089863        2.4641073042
 C        -3.7456629467        7.2150123465        2.6776286121
 O        -5.5509114778        4.2009414886        2.3927648403
 O        -3.6112601990        6.6322844539       -0.2392619467
 C        -5.9273880713        7.7195736515       -1.6883496699
 C        -7.5318118909        7.5972237096       -1.7987781164
 C        -8.2385550356        6.8195560670       -3.0017995157
 C        -7.7952273717        5.2406517021       -3.0393087496
 C        -8.6038352846        4.3562981061       -4.0362504048
 O        -8.2225679897        8.1120874295       -0.9020435419
 O        -6.8429066291        4.7458504663       -2.3736991639
 C        -9.7778215954        6.8829612046       -2.8322696588
 C        -7.8016755073        7.5441534788       -4.3648645829
 H         9.2581945131       -6.3694886632        4.7158383084
 H         9.7279781850       -6.0741724190        6.3461228472
 H         8.4742900965       -7.0960728973        6.0920615573
 H         7.3056157038       -4.9487147879        3.0278966448
 H         6.4592878619       -3.5713196790        3.5230445686
 H         6.6798935381       -2.6307461645        5.8790339525
 H         7.9969875657       -1.5583269365        5.5902970176
 H         7.9001469745       -2.3781841765        7.1366673018
 H        10.9266030263       -3.7673603347        5.0815051298
 H        10.4255679313       -2.3958933264        5.6955157593
 H        10.4380637059       -3.6378194687        6.7707948431
 H         8.6401073885       -3.2112994970        1.3742095155
 H         7.1976884624       -4.1539932421        0.8584120943
 H         3.3484911519       -1.7344268567       -0.6625661116
 H         3.8948435212       -1.7959875975        0.9100336848
 H         8.1993702962       -0.6616329692       -0.4103387888
 H         7.6337903165       -1.0485283152       -1.9928352009
 H         8.6752451870       -2.1422240992       -1.2546666142
 H         6.9789441701       -3.8528141984       -1.3088374503
 H         5.1828187693       -3.6009011796       -0.6548861134
 H         5.8216808505       -2.9973060586       -2.1773196748
 H         3.7578632524        1.0258631891        0.3696888096
 H         2.8598826170        0.0372807766        1.4302430872
 H         1.8561210695       -0.1070720304       -4.7922297795
 H         2.9306743015       -0.6196033356       -3.6066398805
 H        -0.3270002810        1.6694189777       -1.2996773663
 H         0.5782440781        2.6874748984       -2.4988103831
 H         1.0476033561        2.5827843319       -0.7155817465
 H         3.0802924247        2.4009789396       -1.5100375452
 H         3.7788057593        0.9568751074       -2.1336295322
 H         2.8150002428        1.8855368332       -3.2167546561
 H         0.3733582982       -2.2697897156       -4.7072761802
 H         1.9453368456       -2.1792391085       -5.2635584482
 H         1.3471436122       -5.8847168236       -0.6531164163
 H         1.1536663797       -4.1299699891       -0.9187613827
 H         1.2998048921       -6.0875357944       -5.2323563901
 H         2.4067019605       -4.7562108706       -5.5982739318
 H         0.6325891076       -4.5760815792       -5.5474932358
 H         3.4280386394       -5.9621119181       -3.8605761154
 H         3.4562967140       -4.8555914993       -2.2798500661
 H         2.5854218960       -6.3764461762       -2.4140229724
 H        -0.1704772215       -5.4393005531        0.9019145105
 H        -0.9036241574       -6.2218192467       -0.4529535088
 H        -5.1495275487       -3.0767358189       -0.8531802068
 H        -5.6745774531       -3.2358287169        0.7757472596
 H        -3.5042125330       -4.8010488815       -1.5902773134
 H        -4.6142662604       -5.4618288551       -0.4387401866
 H        -2.9709164769       -6.1944105272       -0.5539712372
 H        -2.1568954485       -4.3425975210        2.4323777994
 H        -3.7346256349       -5.1070897476        2.2490061240
 H        -2.2310635793       -5.9386965221        1.7382527497
 H        -6.5137210297       -1.0780536252       -0.2386865995
 H        -5.6001534036       -0.8686592299        1.2118443332
 H        -4.3607198028        2.4952051700        2.2075456535
 H        -2.5419675043        2.3185147555        2.4421124861
 H        -5.3496650829        1.2508192241       -2.2917718817
 H        -3.6707870076        1.9065132234       -2.2604788205
 H        -5.1989474036        2.8206224016       -1.6916764619
 H        -6.8564247163        1.3653336324       -0.0118862020
 H        -5.8995601893        1.6010945845        1.4953182689
 H        -5.9738087963        2.7866570822        0.3655085509
 H        -3.3023752845        4.1266723205        0.3417713965
 H        -2.4720174119        4.6034916194        1.8123874485
 H        -6.4469035833        8.1770254773        0.5039264827
 H        -4.9944613588        8.9948467072        0.0578347225
 H        -6.3613600631        6.4578022168        3.5391860288
 H        -7.0333959597        5.9966134268        1.9819573121
 H        -6.4247168160        7.6345288835        2.2461468471
 H        -2.7889785606        7.1033010556        2.3087323509
 H        -3.9508496575        8.2868407128        2.6395408374
 H        -3.4173037103        6.9328983430        3.7227012802
 H        -5.6678103446        8.5526323782       -2.3757131039
 H        -5.4937895354        6.8081314569       -2.0238179106
 H        -9.1085392787        5.0594928867       -4.7463144960
 H        -8.1555852007        3.5539744161       -4.6424682264
 H        -9.3699467688        3.8654711702       -3.4299386812
 H       -10.1382952302        6.2639767113       -3.6935082822
 H       -10.0482851249        7.9476769808       -2.8624022160
 H       -10.0314468420        6.4339186699       -1.9013320754
 H        -7.8539379876        8.6582682781       -4.3217383797
 H        -6.7187630309        7.3203411720       -4.6727177174
 H        -8.4884317839        7.1862450122       -5.0782243412
 Na       -1.5711641680       -0.6360915457       -0.4676987346
