155

 C         6.3773073404        0.5568458826       10.1907018380
 C         6.1426750109        0.7070052086        8.7139652402
 C         6.7648455171       -0.2644443281        7.7685912778
 C         5.5308702645       -0.9884882071        7.1828584652
 C         4.9358577950       -0.2665793892        5.9440246342
 C         7.7378299421        0.6330875485        6.8959971433
 C         7.6455318556       -1.4175754672        8.4252304651
 O         5.4027779269        1.5721064111        8.2936620584
 O         5.0739199782       -1.9443126024        7.7680917802
 C         3.6092161369       -0.8538803629        5.3301437764
 C         3.8461456597       -2.0133123505        4.2808420135
 C         2.9085683643       -3.2716173156        4.2566206370
 C         1.4696218072       -2.9294934724        3.6583036203
 C         0.6308341357       -4.0103954635        2.9601844444
 O         4.7362008038       -2.0705299423        3.4821136419
 O         0.9663239592       -1.8475698282        3.8272679272
 C         3.5312047713       -4.4653924410        3.4182977911
 C         2.5966007913       -3.7072667252        5.7264333657
 C        -0.8264835488       -3.6146544200        2.9875328066
 C        -1.0338019437       -2.3890046065        2.2127822015
 C        -2.2536988226       -1.4620531743        2.4709994758
 C        -1.6954318871        0.0149579612        2.7175046899
 C        -1.6233741187        0.5514950667        4.1189379880
 C        -3.0948678174       -1.3768597442        1.2238648462
 C        -3.1445923197       -1.9935110591        3.6900706489
 O        -0.3412648128       -2.2575742454        1.2081176822
 O        -1.3274216614        0.6763720957        1.8093978327
 C        -1.1498312179        2.0458471543        4.0125787618
 C         0.3748060854        2.0501179296        4.0066701249
 C         1.2368108785        3.4093723790        3.7422658907
 C         1.6363614331        3.4618011243        2.1443833856
 C         2.9361599847        2.8996657910        1.6621559973
 O         0.9552191124        1.0485207253        4.2428894738
 O         0.7978359672        3.9359795035        1.4087983242
 C         0.3859375802        4.6343724204        4.0307462367
 C         2.4978757980        3.2946188900        4.6595317115
 C         3.1139424280        2.4339977058        0.1449975687
 C         2.0791580359        1.3577655196       -0.1269189121
 C         2.0021190030        0.7097715450       -1.5649804014
 C         0.5123670983        0.9146038380       -2.1594737622
 C        -0.2179908216        2.2063425867       -2.1821669928
 C         3.0302098667        1.2651256946       -2.5146155100
 C         2.2084313504       -0.8183123134       -1.4521992641
 O         1.2388570313        1.0306837539        0.6612770365
 O        -0.1543397187       -0.1129831881       -2.2530005183
 C        -1.6594821555        2.0932915766       -2.8375874074
 C        -2.7542401701        1.4805520147       -2.0122940750
 C        -4.2925110395        1.7302093721       -2.3976927121
 C        -5.0885179414        0.4205003033       -2.5911743732
 C        -4.6430927516       -0.5371575020       -3.7853159940
 O        -2.5896522046        0.7807286241       -1.0398621322
 O        -6.0485526213        0.2115033674       -1.8469866441
 C        -4.8899584172        2.5363991538       -1.1547856670
 C        -4.4226615497        2.5351710331       -3.7021746877
 C        -5.6223862329       -0.4784002109       -5.0725995337
 C        -5.5978956586       -1.8243635864       -5.7706815353
 C        -6.4743970253       -1.9398479115       -7.0949458216
 C        -6.0578380145       -0.9362348860       -8.2302128731
 C        -4.7650317660       -1.0306803796       -9.0785702299
 C        -6.2518972217       -3.3801227219       -7.7672320733
 C        -8.0107307287       -1.5270285624       -6.7576322296
 O        -5.0200846642       -2.7496440472       -5.3046044596
 O        -6.8277707838       -0.0085599424       -8.5538017797
 C        -3.4037636037       -0.7215140915       -8.2678786748
 C        -2.2153712254       -0.0774147382       -8.9846592732
 C        -1.1297002277        0.5128362455       -7.9688626792
 C        -1.8775296262        1.5433494721       -7.1467073322
 C        -2.5380116523        2.7537762194       -7.7112474330
 O        -2.1373166491        0.1017036394      -10.1579027956
 O        -2.0505977856        1.3153758945       -5.9293119294
 C        -0.6504020005       -0.5984201641       -7.0601294754
 C         0.0494463234        1.1905535022       -8.7724434802
 H         5.9596890252       -0.3186239946       10.5496454937
 H         7.4582118209        0.4873533992       10.4044253383
 H         6.0328860948        1.4527696776       10.7205128849
 H         5.0303257103        0.7707783514        6.0423224559
 H         5.6907604405       -0.4608515741        5.1458582051
 H         8.5748394160        0.9168048992        7.5642747573
 H         7.1722177331        1.4590937350        6.4234804304
 H         8.1131303760        0.0093702414        6.0583436250
 H         7.1323350430       -1.9888377101        9.2406703607
 H         7.7898289775       -2.3079670283        7.7999896268
 H         8.6674540371       -1.0175415912        8.6767057836
 H         2.9941783424       -1.1633332764        6.2924079638
 H         3.1470094149        0.0346187472        4.8279919395
 H         1.1467963692       -4.2277431273        2.0550867647
 H         0.7255560722       -4.9311877942        3.6245408358
 H         4.4995788316       -4.7983353162        3.8184314135
 H         3.7277814843       -4.0148346754        2.4180520576
 H         2.9202352192       -5.3437347492        3.4537015184
 H         3.0125432795       -3.0044319963        6.4504943438
 H         1.5934607016       -3.7777561831        5.9828696563
 H         2.9160499571       -4.6956647220        5.8195670972
 H        -1.1474684321       -3.4711625662        4.0195615081
 H        -1.4328190503       -4.4137030376        2.4733530623
 H        -2.6608992431        0.4302585158        4.5021715023
 H        -0.9789778567       -0.0390177801        4.8933086434
 H        -3.6629503972       -0.4506699316        1.2535964489
 H        -3.7828479873       -2.1334660007        1.1157550207
 H        -2.4632474677       -1.1927550339        0.3498101780
 H        -3.3294077290       -3.0629660130        3.7014770048
 H        -2.7315944687       -1.8035263720        4.6423912202
 H        -4.1180802063       -1.5787823583        3.6454503588
 H        -1.7014311967        2.3977382702        3.1352651141
 H        -1.5507699108        2.7956742568        4.7142455663
 H         3.7576352053        3.4845408297        1.9447635630
 H         3.2334012257        2.0211707499        2.3017206116
 H        -0.2694658764        4.5199995477        4.9005360682
 H        -0.3708570608        4.5752110697        3.2217665647
 H         0.9382517904        5.5731863347        4.1844533886
 H         3.3401302765        3.5633636408        4.0971115688
 H         2.4995114840        3.8746257882        5.5925417928
 H         2.7321273312        2.2709471806        4.9426901026
 H         4.0286847270        1.9073760152       -0.0401563765
 H         3.0726389551        3.3022906383       -0.5621677170
 H        -0.3600093346        2.3673229036       -1.0652628393
 H         0.3319093415        3.0562321050       -2.6730007728
 H         3.9149200395        0.6361884529       -2.5628108355
 H         3.2779231017        2.2942626484       -2.4564803956
 H         2.5684986050        1.1945334702       -3.5271997899
 H         3.1917414067       -1.0730447308       -1.1692326752
 H         1.5958309418       -1.2614394560       -0.6649496383
 H         2.0271050967       -1.2598398971       -2.4605370006
 H        -1.9563197331        3.1590697307       -3.0947964029
 H        -1.6844377368        1.4496483150       -3.7671504691
 H        -3.5544705898       -0.3831097758       -4.0239391250
 H        -4.7938852039       -1.5584080663       -3.4082987891
 H        -5.9890717867        2.6083742131       -1.1473163441
 H        -4.5642888494        3.6133075147       -1.1393436319
 H        -4.7393050610        2.1894966129       -0.1527767244
 H        -4.0911554925        3.5206842570       -3.4713177904
 H        -3.7059251383        2.0837622122       -4.4194626942
 H        -5.3265226894        2.4240536393       -4.3076451100
 H        -5.3788979938        0.3038856816       -5.8568602908
 H        -6.6033567832       -0.3065739657       -4.7096325876
 H        -4.5743122861       -1.9961126644       -9.4360940579
 H        -4.7431945433       -0.3384656869       -9.9052219075
 H        -6.5002797701       -4.2135737307       -7.0757476961
 H        -5.1855521192       -3.5569840916       -7.9208149837
 H        -6.9547334757       -3.3147098560       -8.6031603569
 H        -8.5129828865       -2.1848559686       -6.0264913056
 H        -8.0200432820       -0.5291931316       -6.4799379498
 H        -8.5643855812       -1.7008692678       -7.6694339817
 H        -3.6125341532       -0.1522044973       -7.3172058453
 H        -2.9640851447       -1.6646020335       -7.9229859104
 H        -1.8799333245        3.5687260192       -7.9202089663
 H        -3.0023784825        2.3991479029       -8.6077367063
 H        -3.2102634902        3.2110803120       -6.9675546051
 H        -0.1520108271       -1.2639946845       -7.7242360176
 H        -1.5547554143       -1.0252262881       -6.6854711412
 H        -0.0616985648       -0.2589142319       -6.2659614903
 H         0.1614498636        0.5973549745       -9.7363027443
 H        -0.1066099149        2.2997338951       -8.8301613915
 H         0.9834750583        0.8867436867       -8.2873981199
 Na       -0.6119929343       -0.3947027306       -0.1764058291
