155

 C         9.1884597494       -3.2007513072        5.2641522744
 C         8.1751533473       -3.1988247665        4.0709543719
 C         8.7022600571       -2.4476755083        2.6771305474
 C         8.3853827005       -3.6427772777        1.5964093799
 C         6.9149899030       -3.8017943000        1.1604708078
 C         7.6927521483       -1.3010903725        2.4761542748
 C        10.1978431953       -1.9828885902        2.6358651218
 O         7.1163160050       -3.8082618322        4.0491436755
 O         9.1923993399       -4.3340197011        1.0125440839
 C         6.7637935373       -5.0192860312        0.2636564539
 C         5.9736010268       -4.7398479338       -1.0211413525
 C         6.1580198662       -3.2804872722       -1.9759565446
 C         5.3507136275       -2.2033937531       -1.2723860408
 C         3.9057181024       -1.9431857696       -1.6951252025
 O         5.1074269817       -5.5320871050       -1.3674172070
 O         5.8158716506       -1.5492976038       -0.3555798706
 C         7.6427933880       -2.7914937298       -1.9987196713
 C         5.5940977686       -3.5542171512       -3.3668201144
 C         3.3844570355       -0.6810722633       -0.9540574302
 C         1.8633241691       -0.4168264561       -0.9958270885
 C         1.0370062312       -0.0990233161       -2.3709755152
 C         0.0850031652       -1.2802248592       -2.7191789665
 C         0.3870634147       -1.9955564258       -4.0920130216
 C         0.1921222383        1.2002866709       -1.9818225199
 C         1.8704591604        0.2919766054       -3.5748217185
 O         1.2956204132       -0.3563032837        0.0383131934
 O        -0.8933867477       -1.6698688810       -2.0525167732
 C         0.0369007262       -3.5018818348       -3.9348893509
 C         0.9534783206       -4.2194661499       -2.9321243504
 C         0.8309351382       -5.7862308084       -2.7124839836
 C         0.1115343614       -6.0051919344       -1.3346281831
 C         1.0647146911       -5.9040607307        0.0083955848
 O         1.7102136693       -3.6723620482       -2.0959466687
 O        -1.0419903342       -6.2514901601       -1.2504981775
 C        -0.0768009140       -6.4345990945       -3.7485944841
 C         2.2269883380       -6.3829396471       -3.0393989294
 C         0.1156694005       -5.5328788551        1.2808251440
 C        -0.6041511666       -4.2206062357        1.0624483244
 C        -2.0559589442       -3.9498334606        1.5318196102
 C        -2.1763560986       -2.4531229251        2.3179164624
 C        -3.4883354068       -2.1379536382        3.0416554680
 C        -2.9674203863       -3.8447524004        0.3255345682
 C        -2.6508887043       -5.0695728867        2.3933862614
 O        -0.0221829711       -3.3546806445        0.4773651607
 O        -1.2739326857       -1.6938007647        2.3626119296
 C        -3.6200553960       -0.6734239174        3.1772189267
 C        -3.5152470129        0.0081966850        1.8929979141
 C        -3.5929377040        1.6274956314        2.0389483481
 C        -2.1582513016        2.0734481905        1.4027601107
 C        -1.6534217010        3.6364787014        1.6171168134
 O        -3.3343084717       -0.5171499120        0.7762414306
 O        -1.3895341477        1.4180368711        0.7082796863
 C        -4.7722321647        2.0535643691        1.0642313007
 C        -3.6897465560        2.1815459990        3.4282826246
 C        -2.3030732806        4.7607907915        0.7521453357
 C        -3.2019126558        5.6669930577        1.5314070282
 C        -3.6224398789        7.0686105359        0.9098771354
 C        -4.5509862341        6.8915614308       -0.3417389617
 C        -6.1397463600        7.0405245704       -0.2681113500
 C        -4.2056160825        7.8278436538        2.0359168618
 C        -2.3454800400        7.8464582631        0.4771109461
 O        -3.6626281420        5.3671314723        2.6480269437
 O        -3.9573823330        6.7209035600       -1.3832986870
 C        -6.7398727002        7.4796135852       -1.6492481220
 C        -8.3414477854        7.5241951809       -1.5996977798
 C        -9.1513628145        8.6416997197       -2.2925397650
 C       -10.7129786092        8.4238377765       -2.1353824167
 C       -11.1232277231        8.5687497792       -0.5644328671
 O        -8.9176307487        6.5855961655       -1.1566390505
 O       -11.4437765050        8.0111662993       -2.9659455445
 C        -8.8110430614       10.0757756628       -1.8620636953
 C        -8.7857977698        8.4784061752       -3.8518589263
 H         8.5606286856       -3.5368406390        6.0858763435
 H        10.0155814300       -3.9778478335        5.3084560290
 H         9.7287109970       -2.2581312068        5.3629727535
 H         6.3420681442       -3.9471984713        2.0709755128
 H         6.7601157189       -2.8404932416        0.6767789460
 H         6.7187969956       -1.6897662016        2.3185103033
 H         7.9567045542       -0.7611931483        1.5983617673
 H         7.9449917348       -0.7140131956        3.2869706696
 H        10.8705316471       -2.9097707660        2.4970604482
 H        10.1600988236       -1.2003901075        1.9490959033
 H        10.5122821122       -1.5331854211        3.5740385159
 H         7.7320432228       -5.4495640572        0.0189349183
 H         6.3360166813       -5.7882938316        0.8533918415
 H         3.9105626515       -1.8269445470       -2.7951619659
 H         3.3156261753       -2.8238366028       -1.2953286026
 H         7.9472841311       -2.3725378492       -1.0661579829
 H         7.7175313817       -1.9120908575       -2.6781452933
 H         8.1970862694       -3.6896534478       -2.1837501692
 H         6.3274028952       -4.1101541695       -3.9335419491
 H         4.7194783319       -4.1418445665       -3.4504548378
 H         5.4267830189       -2.5543279129       -3.7512972409
 H         3.9330258806        0.2419995660       -1.2492793444
 H         3.6606029908       -0.9234386787        0.0911091396
 H        -0.2891324517       -1.6229576905       -4.8348613207
 H         1.4609272385       -1.7953577598       -4.4844868520
 H         0.0556861227        1.2023193349       -0.8804872632
 H        -0.7827882920        1.2749103288       -2.3857324872
 H         0.7331907545        2.1554877589       -2.1877111170
 H         2.3301257620        1.2324106876       -3.5356065211
 H         2.7864987936       -0.2461625773       -3.7354156947
 H         1.2233489483        0.1338447350       -4.4551338351
 H        -1.0758006608       -3.5673658650       -3.6311280848
 H         0.3640046128       -4.0059221197       -4.8173758669
 H         1.5568361469       -6.8484803411        0.1570397582
 H         1.7466401323       -5.0745247683       -0.2611145467
 H        -1.0354163023       -6.0542263568       -3.5230836868
 H        -0.0067675609       -7.5161345552       -3.4973721936
 H         0.2908599700       -6.1734414508       -4.7500687774
 H         2.6844166345       -5.8678056855       -3.8637847610
 H         2.9018006359       -6.3200081848       -2.2564950202
 H         2.0496280629       -7.4290042565       -3.1088448536
 H         0.6906745097       -5.3047494683        2.1639606300
 H        -0.5512727230       -6.3128963651        1.5460541737
 H        -4.3244877135       -2.6005216796        2.4815207363
 H        -3.5399884744       -2.7284477805        3.9869986219
 H        -2.4802564874       -3.3073021624       -0.5011526217
 H        -3.8115320995       -3.2938129917        0.6309489387
 H        -3.1512129200       -4.8470404334       -0.0416074628
 H        -2.0885272751       -5.1044843782        3.3332494367
 H        -3.7047354768       -4.9436703016        2.7215826270
 H        -2.5802734314       -6.0356385913        1.8533125050
 H        -4.6735856142       -0.4302052339        3.5016425678
 H        -2.8360414420       -0.2760230390        3.8391295408
 H        -1.8351809680        3.9158754518        2.6508695743
 H        -0.5311550996        3.5675234669        1.4078747343
 H        -5.8261579669        1.9654897892        1.4962633095
 H        -4.8272934567        1.4187224516        0.2225342729
 H        -4.6340874136        3.1195033906        0.7947670621
 H        -4.5392290200        1.8346143194        4.0710558439
 H        -2.8777155824        1.7988402425        4.1137633118
 H        -3.8227286994        3.2953208738        3.3460424967
 H        -2.8814342463        4.4907377371       -0.1046550065
 H        -1.5725988914        5.4678261857        0.2812846638
 H        -6.3999081210        6.0463469840        0.0186230597
 H        -6.5650024062        7.6480045188        0.4049466205
 H        -3.7013822989        7.5447672742        2.9481718226
 H        -5.2693967676        7.6594657992        2.0478373007
 H        -4.0806714868        8.8924519737        1.9762764907
 H        -2.1341306022        7.4835255857       -0.4704957657
 H        -2.5782570512        8.9168055125        0.2689713246
 H        -1.5759764482        7.6584546574        1.2744168017
 H        -6.3113230029        8.5098867400       -1.8230546477
 H        -6.4722903246        6.7197255783       -2.3957010780
 H       -11.2955748914        9.6678133595       -0.5490579021
 H       -12.1490087697        8.0618701118       -0.3922278863
 H       -10.3216221699        8.2996019387        0.1658013898
 H        -9.4963921196       10.7222344695       -2.3301891027
 H        -7.8678672456       10.5318228094       -2.1858966022
 H        -8.8942295447       10.2673835940       -0.7848244835
 H        -7.7159124347        8.7300508527       -3.9280403697
 H        -8.9003659399        7.4173102171       -4.0401171697
 H        -9.3141589220        9.0739562195       -4.4568848454
 Na       -1.0043729613       -0.9781326560        0.1779020256
