155

 C         9.1411775076       -3.5405418456        5.1498777985
 C         8.1997729907       -3.1307779879        3.9536648051
 C         8.7387952451       -2.5541587128        2.6607855970
 C         8.4446385489       -3.4175482994        1.4067603841
 C         6.9780582352       -3.8898238012        1.0993132255
 C         8.0679383380       -1.1574681146        2.2663401192
 C        10.2470921368       -2.0984377191        2.7080750692
 O         7.0281009541       -3.2799712652        4.0803143224
 O         9.3653521663       -3.6699247210        0.6501279981
 C         6.9490870364       -4.9314497406       -0.0455023682
 C         5.9449052847       -4.6865124924       -1.1494347567
 C         6.1461767287       -3.4582893057       -2.0665660590
 C         5.4674400458       -2.2012366804       -1.4993281398
 C         3.9095758632       -2.0576045598       -1.5230128166
 O         4.9103161973       -5.3842895240       -1.1526636792
 O         6.2037170442       -1.2694454457       -1.1972663756
 C         7.6839088963       -3.0866441644       -2.2447569236
 C         5.6332172148       -3.6596889555       -3.5283528328
 C         3.3461904752       -0.7325001783       -0.8863451372
 C         1.8249535916       -0.5273149463       -0.9884470960
 C         1.1674017091       -0.1602431588       -2.4394065495
 C         0.2378425799       -1.3085098977       -2.8145316627
 C         0.2834513866       -2.0874497227       -4.0921168134
 C         0.3098510562        1.1015293806       -2.2481186101
 C         2.1797587984        0.1604839393       -3.5175272811
 O         1.1423697207       -0.5945162630       -0.0095554219
 O        -0.7438511243       -1.4671547159       -2.1016110896
 C        -0.3383151122       -3.5189862904       -3.9732408221
 C         0.6540026173       -4.3621967467       -3.1760272918
 C         0.4004834086       -5.8986431830       -2.8202871000
 C        -0.1786955209       -5.9618022136       -1.2932470429
 C         0.8029633254       -5.4737140267       -0.1762765973
 O         1.6527785333       -3.7590657960       -2.6875897433
 O        -1.2518327528       -6.4136207477       -1.0153349782
 C        -0.7068416757       -6.7299768806       -3.6650136863
 C         1.7306958142       -6.6286325684       -2.7451278281
 C         0.1738371863       -5.3500407091        1.1599611515
 C        -0.5476751707       -4.0400362019        1.2826513179
 C        -1.8947330569       -3.9316528879        2.0464027450
 C        -2.1956943876       -2.5858367729        2.7205251025
 C        -3.5162181549       -2.2539447413        3.4627708206
 C        -2.9496501191       -4.2073158920        0.8313124454
 C        -2.0295169739       -5.1257760633        2.9348539772
 O        -0.1696430769       -3.0749075379        0.6359166547
 O        -1.3909785425       -1.6580732603        2.6127610854
 C        -3.6445077340       -0.7469827770        3.5162313485
 C        -3.3973406511       -0.0689654870        2.1992932352
 C        -3.4043477954        1.4917172819        2.0844650278
 C        -2.1960247703        1.9719447904        1.1921808407
 C        -1.7545644012        3.5642144246        1.0758522503
 O        -3.6073159774       -0.6678339125        1.1173817542
 O        -1.7213980351        1.2345650615        0.3357905092
 C        -4.6427659816        2.1033261331        1.2693025857
 C        -3.3995009609        2.0996942008        3.4762310100
 C        -2.7133140144        4.5577075252        0.3016609249
 C        -3.1746219525        5.6059994501        1.2914741525
 C        -3.4082308291        7.0617395666        0.7923328840
 C        -4.4756872314        7.0284123784       -0.4231714747
 C        -5.9697487627        7.1259909214       -0.1176630121
 C        -3.8049099392        7.9540394942        1.9704697381
 C        -2.1395433718        7.6414416789        0.1492734343
 O        -3.6584476769        5.1512583098        2.3590769893
 O        -4.1238067701        6.7510425757       -1.5308991377
 C        -6.6252106552        7.8711811558       -1.3166578552
 C        -8.2029634298        7.6344562926       -1.3756754477
 C        -9.0755564178        8.6243834646       -2.2219141323
 C       -10.6068361745        8.6703627176       -1.7387984899
 C       -10.9457575049        8.8693104207       -0.2901036391
 O        -8.6124890043        6.6501780948       -0.7951238424
 O       -11.4997886184        8.3054876593       -2.5284231067
 C        -8.5640577116       10.0317172846       -1.9574762112
 C        -9.1260729073        8.3254907202       -3.7657812717
 H         8.6798323345       -4.3089938902        5.7486200628
 H        10.1972036882       -3.9117452721        4.8444106662
 H         9.3051117435       -2.6432143188        5.7987203040
 H         6.5567463528       -4.1335586980        2.0687808208
 H         6.6447179067       -2.9789057115        0.6153799083
 H         6.9942598296       -1.2877542612        2.5425060877
 H         8.1268611668       -1.0957265636        1.2145615166
 H         8.6319893790       -0.3628825045        2.7556424524
 H        10.8924182043       -2.9324413535        2.9582993830
 H        10.5061097418       -1.6109572429        1.6980157166
 H        10.4467649638       -1.3224485478        3.5214096126
 H         7.9416227351       -4.9919290388       -0.4823302915
 H         6.7656511258       -5.9054294083        0.3621349488
 H         3.6935368040       -1.9318507564       -2.5981108908
 H         3.3850533256       -3.0473814304       -1.2296670873
 H         8.1732830902       -2.9102259277       -1.2878267253
 H         7.8091402180       -2.1701161217       -2.8395279228
 H         8.1101681696       -3.9170768637       -2.7895303528
 H         5.9995896406       -4.5870075127       -3.9898138556
 H         4.5262266498       -3.6404125596       -3.5136205699
 H         5.9570915375       -2.7383288815       -4.0872508790
 H         3.7997903253        0.1336297330       -1.3593706695
 H         3.5625548066       -0.7493420479        0.1940752260
 H        -0.2487333080       -1.4003501150       -4.7169510450
 H         1.2993220842       -2.1395677510       -4.6407219510
 H         0.9850776758        1.9239821325       -2.1698098037
 H        -0.1070138877        1.0634808381       -1.2859408126
 H        -0.4578628558        1.3437707698       -3.0072984068
 H         2.8348292091        0.9929470273       -3.2772146214
 H         2.8200625123       -0.6228142140       -3.8359385863
 H         1.6749043044        0.4343132026       -4.4806592496
 H        -1.3134798327       -3.4937751036       -3.3779237507
 H        -0.3372290234       -3.9909469563       -4.9565585218
 H         1.5343433378       -6.3147436330       -0.1777479413
 H         1.3534514709       -4.5317848298       -0.4772431042
 H        -1.5394102976       -6.0983908989       -3.7588515057
 H        -0.9129406973       -7.6669291459       -3.1154839483
 H        -0.1772439747       -6.9776436713       -4.5957523879
 H         1.9366332329       -6.9630717930       -3.7299243007
 H         2.4419577773       -5.8999277721       -2.4331857089
 H         1.8697900074       -7.5002942899       -1.9851569246
 H         0.9632729623       -5.2571923376        1.9205883883
 H        -0.5092915105       -6.1707748511        1.4384967837
 H        -4.3746930290       -2.7628414805        2.9229263966
 H        -3.6344057582       -2.7880348166        4.4630288079
 H        -2.9900332300       -3.4259154363        0.0643056785
 H        -3.7828251443       -4.3376563539        1.3671271313
 H        -2.6452934948       -5.1137059641        0.2825189277
 H        -1.2652290850       -5.1394709819        3.7509928614
 H        -3.0628781602       -5.1263140007        3.3488562107
 H        -1.9222803605       -6.0158811776        2.3548389430
 H        -4.7352400790       -0.5248978035        3.7368193827
 H        -3.0115757422       -0.3261868818        4.2848634726
 H        -1.8918248418        3.9283259846        2.1131868054
 H        -0.7255830500        3.6134121844        0.8066306898
 H        -5.6615264761        1.6593786866        1.3958839673
 H        -4.4491731446        1.9139957727        0.2407050547
 H        -4.7405602940        3.1700741619        1.4230705005
 H        -4.3142680605        1.8038866148        3.9700976564
 H        -2.5892633150        1.7336995873        4.1530120241
 H        -3.3711380424        3.2455261507        3.6060595644
 H        -3.6039105430        4.0541740973        0.0683534969
 H        -2.2723260688        5.0881176011       -0.6225574060
 H        -6.3154510262        6.0843233460       -0.1423692039
 H        -6.3081664691        7.4455011297        0.8257253040
 H        -2.9514749516        7.9565820966        2.6903954417
 H        -4.6985282632        7.5694183602        2.5131040883
 H        -3.9266785256        8.9618047348        1.7052173048
 H        -2.1942755081        7.2682672778       -0.8844138656
 H        -2.1362866654        8.7213586307        0.1782605166
 H        -1.3450453616        7.4418305796        0.8316231942
 H        -6.4728062792        9.0036077213       -1.2833595938
 H        -6.1517571935        7.4151158282       -2.1868623711
 H       -10.5905613464        9.9193947650       -0.1694633753
 H       -12.0105474809        8.8775159610       -0.1795172937
 H       -10.3966126032        8.2154651052        0.3661578630
 H        -9.3412823590       10.7016946850       -2.3709229843
 H        -7.7135737102       10.3896869844       -2.5846088393
 H        -8.5048421135       10.4243057776       -0.9360357376
 H        -8.1112712338        8.3287202199       -4.1429947507
 H        -9.5836335476        7.3773959117       -3.9245675214
 H        -9.6144632530        9.1574334081       -4.2066563475
 Na       -1.2684404473       -0.8971918249        0.2289113413
