155

 C         8.9049494701       -4.0877733355        4.3707928994
 C         8.1694142476       -3.0493963957        3.6164499322
 C         8.9992364363       -2.2499404937        2.3847465947
 C         8.7972363491       -3.0582010927        1.0371073144
 C         7.3183200057       -3.1867972914        0.4985592445
 C         8.3862234423       -0.8725791072        2.1756158827
 C        10.4093870297       -2.0366073778        2.7810106111
 O         7.0346768907       -2.7132743186        3.8770327497
 O         9.6786120692       -3.6421685835        0.4754430095
 C         6.9407375185       -4.5500095616        0.1044315987
 C         5.8347595258       -4.4640103226       -1.0051457898
 C         5.9261193210       -3.5443691018       -2.3199105728
 C         5.3250199411       -2.1413768345       -1.9263401863
 C         4.0366089795       -2.1139996806       -1.0891886664
 O         4.8178923717       -5.0811686206       -0.8971943468
 O         5.9014868525       -1.1258848204       -2.1854709763
 C         7.3093020050       -3.3075367621       -2.8636699302
 C         5.0871231660       -4.2384674712       -3.4604722040
 C         3.4395094412       -0.6291045624       -1.1129125570
 C         1.8322519783       -0.5280077709       -1.3564050260
 C         1.1987283255       -0.3106682995       -2.7904417186
 C         0.0394005468       -1.4383923798       -3.0287026779
 C         0.0337438797       -2.3421249962       -4.3303887095
 C         0.6044981761        1.1496910529       -2.8393343606
 C         2.3107686698       -0.5850447970       -3.9057753023
 O         1.1005192104       -0.6019733336       -0.3487684685
 O        -0.8518323243       -1.5379731191       -2.2395824390
 C        -0.6500431084       -3.6721843452       -4.0331168493
 C         0.3083315356       -4.6955815328       -3.3911914126
 C        -0.1618100503       -6.0363673473       -2.7192425051
 C        -0.6570859706       -5.6885326011       -1.2611715283
 C         0.5577113599       -5.6944671992       -0.1340969046
 O         1.4544916222       -4.3532709728       -3.3217885361
 O        -1.8136485166       -5.3730658772       -0.9777835202
 C        -1.3679225445       -6.7556568801       -3.4434002154
 C         0.9418658159       -7.0298788836       -2.5840780589
 C         0.3960678350       -5.3088947435        1.3329998527
 C        -0.7137105547       -4.2338081049        1.5155925766
 C        -1.6816938181       -4.3683679779        2.8470020270
 C        -1.8281792586       -2.8322280399        3.1503053801
 C        -3.1241154518       -2.2944599281        3.6689848998
 C        -2.9886966911       -5.1076645233        2.4293220427
 C        -1.0942251018       -5.0729339056        4.0989869456
 O        -0.7901411096       -3.3694186892        0.7126993482
 O        -0.9417285766       -2.0200506398        3.0080796556
 C        -3.2464360873       -0.7476723472        3.7145701556
 C        -3.1873501385       -0.0989933105        2.2856310039
 C        -3.3953471484        1.3798694601        2.0938802469
 C        -2.2159651965        1.9568168298        1.0084899163
 C        -1.8689939916        3.4958481402        1.0279863387
 O        -3.2459620067       -0.8647538567        1.3079541868
 O        -1.7611897251        1.2586388501        0.2198913608
 C        -4.7846461423        1.7074780545        1.5413268208
 C        -3.2018116903        2.1494146804        3.4426460383
 C        -2.8684421014        4.4233135493        0.2073133225
 C        -3.3634722831        5.6368588498        1.0099711625
 C        -3.0274078712        7.1221120401        0.4905124974
 C        -4.2374736235        7.2651285735       -0.6536134736
 C        -5.6221178372        7.4538849032       -0.1792661010
 C        -3.2066899619        8.1982325251        1.5855202408
 C        -1.6148153088        7.3275646655       -0.1515518061
 O        -4.0658402447        5.4327178061        1.9611711992
 O        -4.0240030370        7.1005037534       -1.8448471890
 C        -6.5309009668        8.2026019911       -1.1822892801
 C        -8.0787283507        8.0564446391       -0.8841498400
 C        -9.1413691130        8.7523287171       -1.8916490388
 C       -10.5175805696        8.9052355495       -1.1152774834
 C       -10.5008800379        9.2626710841        0.3943550918
 O        -8.5344605376        7.3854478174        0.0134854742
 O       -11.5278584285        8.7126548247       -1.6728026235
 C        -8.7079192930       10.2036061568       -2.4122671807
 C        -9.1845159695        7.8009242244       -3.0985499930
 H         8.3283358820       -4.7016449073        5.0639718322
 H         9.5514386832       -4.5946333557        3.7200532133
 H         9.4794578423       -3.4579334165        5.0531650833
 H         6.5973242429       -2.8398574916        1.2852833306
 H         7.2241072460       -2.4238907678       -0.3117026788
 H         7.4167982427       -0.8717951948        2.7021963929
 H         8.3174991951       -0.5891425188        1.1420022360
 H         9.0182682023       -0.0903576282        2.7113480153
 H        11.0481649243       -2.8808200108        2.5078465898
 H        10.8848991772       -1.2652511290        2.1687766195
 H        10.6077553958       -1.8075784089        3.7981162161
 H         7.7830050398       -5.1691410140       -0.3157434273
 H         6.3671839294       -5.1327474769        0.8457861376
 H         3.4410872185       -2.9164767907       -1.3968431041
 H         4.2934772482       -2.3620078727       -0.0410677416
 H         8.0931785323       -2.8915893814       -2.1630254532
 H         7.2700606068       -2.6006128449       -3.6655601315
 H         7.7779917029       -4.2541967326       -3.1985962642
 H         5.2671625694       -5.2752617056       -3.5077941512
 H         4.0206652292       -4.0472988827       -3.1618923563
 H         5.2770208967       -3.7596540174       -4.4133838460
 H         3.9946140403       -0.1575704172       -1.8931773888
 H         3.6956579393       -0.0656934648       -0.2117572141
 H        -0.3984953098       -1.7437865702       -5.0879971649
 H         1.0526712069       -2.5403709148       -4.7242006264
 H        -0.3593873449        1.1039399539       -3.2931196092
 H         1.3153749460        1.8061001450       -3.4040436003
 H         0.5728356380        1.5520630290       -1.7847400917
 H         3.2344610449        0.0523008770       -3.7467176259
 H         2.6366081867       -1.6412116613       -3.8100375707
 H         1.8868489265       -0.3911774499       -4.9176842026
 H        -1.3140055632       -3.5122670015       -3.1845711523
 H        -1.2523960410       -4.0225415357       -4.8530563857
 H         1.0909313869       -6.6176861839       -0.3159993506
 H         1.2690156345       -4.9686493435       -0.5404887908
 H        -2.1923504452       -5.9767129923       -3.5074105434
 H        -1.6499251536       -7.5861328453       -2.8400101678
 H        -1.0933514580       -7.0892278275       -4.4661553342
 H         1.3811745464       -7.3252963764       -3.5312211927
 H         1.8223893399       -6.4022359106       -2.2203762903
 H         0.7672578558       -7.8606184251       -1.9118687577
 H         1.3151565188       -4.8966334750        1.7380023994
 H         0.0292347838       -6.1460978919        2.0012369393
 H        -3.8783101602       -2.5776678412        2.9389018778
 H        -3.2990082522       -2.7311103086        4.6314106319
 H        -3.5189192332       -4.5461719943        1.6819062099
 H        -3.6709676131       -5.1521248983        3.3197294643
 H        -2.7821258730       -6.1963189404        2.2117297962
 H        -0.0024057443       -4.9252148848        4.2159308895
 H        -1.5992911129       -4.6046216418        4.9405066519
 H        -1.3693299106       -6.0817457013        4.0934732398
 H        -4.2510323929       -0.4611563209        4.1308659011
 H        -2.6122359201       -0.2587562279        4.3771319147
 H        -1.7886196177        3.9039925963        2.0433841039
 H        -0.9383584754        3.5444186510        0.6252213227
 H        -5.6613777635        1.0890347354        1.7817417595
 H        -4.7383918369        1.7649101072        0.4181558278
 H        -5.0484890623        2.7267521988        1.7591829087
 H        -3.7795769166        1.6952829247        4.2429933742
 H        -2.1691469269        2.0754711890        3.7244868049
 H        -3.3883469445        3.2063369613        3.5132037729
 H        -3.6714701277        3.6905669520       -0.0808196619
 H        -2.4217190090        4.6873383056       -0.7851766682
 H        -5.9982499640        6.3836049982        0.0101338947
 H        -5.7051400606        8.0844278317        0.7826346575
 H        -2.4093009826        7.9836212470        2.3506638159
 H        -4.2205666365        8.2471254551        2.0745968454
 H        -2.9814740491        9.1812360837        1.2027494535
 H        -1.6557230678        6.8112514109       -1.1821702355
 H        -1.5506245558        8.3585015729       -0.2846848096
 H        -0.9271671159        6.7556251627        0.4574733666
 H        -6.2812936797        9.2828201221       -1.2804785283
 H        -6.3841819886        7.9454136959       -2.1764894836
 H        -9.6146074178        9.8698188201        0.7000634545
 H       -11.3709244081        9.9123371465        0.3970554568
 H       -10.6275115713        8.4518206664        1.1104740894
 H        -9.5576350232       10.6654990816       -2.9570837733
 H        -7.8783765926       10.2186556332       -3.1000955664
 H        -8.3797562031       10.8191018896       -1.6390717527
 H        -8.1841245176        7.7797376985       -3.5078345767
 H        -9.5912850698        6.7858237150       -2.9313563103
 H        -9.9312128082        8.2867308566       -3.8620539801
 Na       -1.3912737741       -1.1642652380        0.0980369882
