155

 C         8.8976582872       -3.9170845901        4.1070094781
 C         8.3002168600       -2.6951391891        3.4653358701
 C         9.0099020730       -2.0591329011        2.1364827320
 C         8.8999905932       -3.1018434274        0.9823716326
 C         7.5374703773       -3.1320998563        0.3082083211
 C         8.3135139602       -0.6785910297        1.7664241907
 C        10.5279622528       -1.9540077672        2.3744734147
 O         7.3123959422       -2.1911181422        3.9525159654
 O         9.8308953392       -3.7313997731        0.5622253976
 C         7.4164948337       -4.1510007292       -0.8410538609
 C         5.9792832817       -4.1752778564       -1.2844056764
 C         5.4254845783       -3.9749833696       -2.7670757857
 C         4.8311571785       -2.5311280154       -2.8314062249
 C         3.3492256397       -2.2820880558       -2.3947810143
 O         5.1029125734       -4.1757395576       -0.4695570768
 O         5.5711137631       -1.6669807338       -3.1665308880
 C         6.5115617341       -4.0751205836       -3.8714257020
 C         4.4498938325       -5.1672738201       -3.0349000721
 C         3.1629428423       -0.9549430527       -1.7431091025
 C         1.6230591198       -0.5983943004       -1.4862437208
 C         0.4849284240       -0.4363284979       -2.6297490662
 C        -0.2666965363       -1.7828256744       -2.6481711418
 C        -0.4000612558       -2.5561868754       -3.9109586539
 C        -0.5289277270        0.6677655073       -2.0335629545
 C         1.1903576291       -0.0319943507       -3.9809180608
 O         1.3217324635       -0.4800892969       -0.3243866448
 O        -1.0466093304       -2.0470883519       -1.6869403304
 C        -1.1305734076       -3.8797784214       -3.7354745173
 C        -0.2812193255       -4.9104371780       -2.9782991535
 C        -0.7561198729       -6.2925686821       -2.7112615247
 C        -1.0440342969       -6.2789442395       -1.0934523100
 C         0.1320830900       -6.2022439613       -0.0781703342
 O         0.8621295161       -4.5790400299       -2.5518475392
 O        -2.1224159951       -6.2344722972       -0.6825416620
 C        -2.0764602978       -6.6021258331       -3.5990662516
 C         0.4020947561       -7.3153929180       -2.9711477031
 C        -0.5340232864       -5.8343890440        1.3344400917
 C        -0.4671727939       -4.3490423662        1.6412835803
 C        -0.6974318006       -3.8940337453        3.0522791133
 C        -1.0176885747       -2.3876702901        3.0272899501
 C        -2.2887413854       -1.9254651400        3.7257234108
 C        -1.8394534038       -4.7492851395        3.6885617766
 C         0.6774647568       -4.1055842756        3.8199386634
 O        -0.3103525042       -3.5630435257        0.7455294175
 O        -0.1327806798       -1.6342687413        2.6700228956
 C        -2.6788149811       -0.4712737260        3.5051059263
 C        -3.2874282040       -0.2164506911        2.1559210019
 C        -3.6930422185        1.3192575752        1.7870510404
 C        -2.3657228398        2.0085607277        1.1432669451
 C        -2.0838212435        3.5160674076        1.4016824425
 O        -3.5614787157       -1.0467162421        1.3820314164
 O        -1.6201679188        1.2811053109        0.5221360098
 C        -4.8230187831        1.3072569930        0.6151614968
 C        -4.1898676059        2.0761811599        3.0824405988
 C        -2.7707511971        4.3632747679        0.2294237928
 C        -3.1048867407        5.7385989962        0.7756825227
 C        -2.7349874695        7.0852209993        0.1302856627
 C        -4.0378650722        7.6427989681       -0.7277061591
 C        -5.3409590615        7.3303534038       -0.0951551804
 C        -2.2508830722        8.2073084253        1.0879146626
 C        -1.5458444737        6.8978933917       -0.8984414801
 O        -3.8188451648        5.7921089259        1.7915017501
 O        -3.8828179522        8.0970587877       -1.8712683788
 C        -6.4404060710        8.0641300323       -0.9618037112
 C        -7.8958041456        8.2146835140       -0.3807716992
 C        -8.9887495544        8.7248971045       -1.3497670222
 C       -10.2003372618        9.2064139165       -0.4008988118
 C       -10.0172134698       10.5762495658        0.2453946331
 O        -8.0605217187        8.0641347895        0.8075428525
 O       -11.2071708749        8.6316845371       -0.3466813923
 C        -8.5377237870       10.0079437824       -2.2042344654
 C        -9.5031993685        7.4675349704       -2.1390228473
 H         8.2062423971       -4.4754136767        4.6932022341
 H         9.2963394428       -4.5577028246        3.3363154940
 H         9.7616846482       -3.5510056532        4.6034592270
 H         6.7936086437       -3.2116916396        1.1345988047
 H         7.5451548105       -2.0780667761       -0.0730848028
 H         7.2357703059       -0.7597100088        1.9156341649
 H         8.4112672211       -0.3193224519        0.7983484114
 H         8.5886683196        0.1233696603        2.4422574567
 H        11.0974795855       -2.8119002108        2.8163410932
 H        10.9922820691       -1.7527556785        1.3924330479
 H        10.7913403976       -1.1487610245        3.0296065087
 H         8.0458104379       -4.0170702216       -1.7375883218
 H         7.7497317382       -5.1384522148       -0.4334891774
 H         2.7310016489       -2.4087392866       -3.2964691477
 H         3.0691869983       -3.0426427043       -1.6878207734
 H         7.3035181606       -3.2873947899       -3.7934039640
 H         6.0181744521       -3.9825576016       -4.8486735399
 H         7.0946142257       -4.9880123367       -3.9837760190
 H         3.5118909898       -5.0523234240       -2.5052066787
 H         4.2187196165       -5.1753527362       -4.1079929129
 H         4.8907410164       -6.1107220959       -2.7256094321
 H         3.7209038865       -0.2980359715       -2.3979736754
 H         3.6658064454       -0.9861858178       -0.7969931958
 H        -0.9624059691       -1.8883962277       -4.4936772800
 H         0.6189168815       -2.8073668655       -4.2712004110
 H        -1.3907083123        0.1405104226       -1.7104892346
 H        -0.8157421051        1.4228282178       -2.7606465088
 H        -0.0025298243        1.1747862227       -1.1682398228
 H         1.4842601696        0.9864600727       -3.8800384912
 H         1.9401997431       -0.7658159752       -4.1479737345
 H         0.4756529818        0.0161381909       -4.8463683840
 H        -2.1143504078       -3.7620997956       -3.2649867251
 H        -1.3983471581       -4.3862263459       -4.6304601663
 H         0.7056149067       -7.1465959455       -0.0934367758
 H         0.8380320605       -5.3417053468       -0.2895715462
 H        -2.9877051315       -6.0128095922       -3.4202817195
 H        -2.4039955906       -7.6376736330       -3.5358305536
 H        -1.7424829051       -6.4672588234       -4.6699659017
 H         0.3958631049       -7.8043189123       -3.9208513908
 H         1.3313141545       -6.6633396606       -2.8583184132
 H         0.5152712457       -8.1617209082       -2.2911990331
 H        -0.1128686373       -6.3953533709        2.2373891987
 H        -1.6036616014       -6.0107891427        1.3452338003
 H        -3.0206218391       -2.6557498276        3.4064488841
 H        -2.1010541772       -2.0943703383        4.7868247838
 H        -2.7969712343       -4.8339596433        3.1593097652
 H        -1.9578227432       -4.4875361630        4.7207922392
 H        -1.5720293222       -5.8562093131        3.8331767456
 H         1.3634415049       -3.2432223730        3.5737198991
 H         0.5520171262       -4.3062945180        4.8987685977
 H         1.1719914001       -4.9598207065        3.4239278885
 H        -3.2672708632       -0.0034466706        4.2096664110
 H        -1.7671805877        0.1715474324        3.5162602815
 H        -2.4076214744        3.8565766203        2.4253153853
 H        -1.1009223919        3.7979451719        1.2954090723
 H        -4.6190985577        2.0017428432       -0.2566161218
 H        -5.8200529925        1.5031969850        0.9932362170
 H        -4.8347033630        0.2961378415        0.1828906465
 H        -5.1097387129        1.6778084614        3.4226448876
 H        -3.3794854951        1.9124738730        3.7722274536
 H        -4.4228280352        3.1640531565        2.9848319013
 H        -3.5968307956        3.8004808401       -0.0955682083
 H        -2.0845446786        4.4279623116       -0.5651904851
 H        -5.4760125682        6.2121687762       -0.0654447929
 H        -5.4338832386        7.5720854637        1.0045407201
 H        -1.6144468793        7.7689664379        1.9058555211
 H        -3.0570650072        8.7186801507        1.6916869185
 H        -1.7517715407        8.9248714600        0.4939638010
 H        -2.0030126992        6.0737395233       -1.5856803712
 H        -1.5129171073        7.8081597662       -1.4591896583
 H        -0.5744011225        6.7899996527       -0.3995031590
 H        -5.9859574720        9.0608235815       -1.0212159303
 H        -6.4716178206        7.5884374220       -1.9909210126
 H       -10.4126372885       11.5270590430       -0.2633507460
 H       -10.4702410357       10.4323698622        1.2399010258
 H        -8.9371467389       10.7620417577        0.4655249673
 H        -9.4228285275       10.5475534208       -2.4950102089
 H        -7.8598406286        9.7194969153       -3.0237331599
 H        -8.0423954254       10.7437969039       -1.5673450637
 H        -8.6883867505        7.0036034814       -2.6702769155
 H        -9.9201480351        6.6986591742       -1.4901979419
 H       -10.3039922559        7.7910325125       -2.9294668658
 Na       -0.7475775273       -1.1668682717        0.3555163311
