155

 C         9.0806986696       -3.7445350039        3.8805783668
 C         8.3851361254       -2.5389993211        3.2373833431
 C         9.1591572813       -1.9350969970        2.0493764947
 C         8.9177209822       -3.1477972958        0.9577531450
 C         7.4655240840       -3.4940325981        0.5146846643
 C         8.5728391254       -0.5935828168        1.4654759769
 C        10.6705562725       -1.7425629125        2.3145608166
 O         7.2480524936       -2.1597106988        3.5591852987
 O         9.8815829899       -3.7424731068        0.5596292276
 C         7.1462685148       -3.4136576502       -1.0049728768
 C         5.7745248508       -4.1157085324       -1.2323163269
 C         5.2310444658       -4.2297890455       -2.8058888892
 C         4.6729594451       -2.7508922796       -3.0862599899
 C         3.2078003289       -2.4444679791       -2.7072443656
 O         5.0059087654       -4.3538056709       -0.3383369034
 O         5.3255096104       -1.8115209851       -3.5182243008
 C         6.2746614260       -4.4718541994       -3.9121310957
 C         4.1076533748       -5.2213005268       -2.9426846914
 C         3.0729350649       -0.9992538163       -2.4671759175
 C         1.5553491321       -0.7498462504       -1.9043869290
 C         0.2790625209       -0.3832949426       -2.7635742186
 C        -0.5702520119       -1.6784371877       -2.6875779455
 C        -0.5204770252       -2.5446149487       -3.9392952486
 C        -0.5183680112        0.7593225670       -2.0957520662
 C         0.7934073149        0.0284067133       -4.2068624664
 O         1.3320062000       -0.9455402956       -0.7287120075
 O        -1.1625831512       -1.9730725109       -1.5978716191
 C        -1.1729620121       -3.8903380918       -3.8315172898
 C        -0.4198510796       -4.9406451712       -2.7882155495
 C        -1.0107652424       -6.3286977510       -2.4976574722
 C        -1.2801375972       -6.4091771498       -0.8845195334
 C        -0.0840334755       -6.3030486279       -0.0113670422
 O         0.7014134853       -4.6960298173       -2.3604902904
 O        -2.3991395235       -6.5735307418       -0.4768617064
 C        -2.0960088097       -6.5738936577       -3.4903128510
 C         0.1241936694       -7.3673724345       -2.7051110818
 C        -0.4437841593       -5.8304489154        1.4347561842
 C        -0.4538775120       -4.2776432390        1.6688731421
 C        -0.2982529932       -3.7747878802        3.2292313377
 C        -0.6283281324       -2.2246331375        3.2355638109
 C        -2.0979707507       -1.8040619308        3.8419955895
 C        -1.1110149373       -4.6074461402        4.2023328909
 C         1.1973051145       -3.7475849513        3.4415632235
 O        -0.6719350706       -3.5087234082        0.8019372056
 O         0.1936969164       -1.4430526215        2.7681536944
 C        -2.5135110562       -0.4090815704        3.4373564884
 C        -3.1313928615       -0.3587726868        2.0412783214
 C        -3.8952753324        1.0535913476        1.6754882779
 C        -2.6325333076        1.9706019088        1.4388596864
 C        -2.5470195607        3.4748710851        1.6854421594
 O        -3.1705590350       -1.2066354929        1.2053262258
 O        -1.5964331329        1.4249745849        0.9979979824
 C        -4.6071819657        0.9080851511        0.3241981049
 C        -4.8561627662        1.6080015472        2.7362799026
 C        -2.6808177265        4.3800799902        0.3376058079
 C        -3.0043284492        5.8084985648        0.8232401786
 C        -2.5325511521        7.1198377149        0.0418101271
 C        -3.8199357709        7.6619275610       -0.9182696987
 C        -5.1879443373        7.6149607312       -0.3240411574
 C        -2.2317847831        8.2740870831        1.0284264190
 C        -1.3599638319        6.8684551905       -0.9264727310
 O        -3.4675187175        5.9710653912        1.9358254197
 O        -3.6538088555        8.0130176786       -2.1023669469
 C        -6.3514824023        8.3290020340       -1.1593124103
 C        -7.5805067470        8.4258755431       -0.2867713298
 C        -8.9549488844        8.6896664024       -1.0015513398
 C        -9.9795458273        9.3104162738       -0.0064192016
 C        -9.9995334165       10.8492738449        0.3203051509
 O        -7.6064488902        8.2513080429        0.9060144469
 O       -10.9943928968        8.6828397199        0.3153585297
 C        -8.7568073799        9.7513994786       -2.1605239784
 C        -9.5352229318        7.4183619906       -1.5174774022
 H         8.3980572941       -4.5765398260        4.1892667097
 H         9.8004745916       -4.0798578395        3.2052547507
 H         9.5744322683       -3.3279513248        4.7701096563
 H         7.4683339029       -4.5520100748        0.8042526593
 H         6.7320540934       -2.8736453283        1.0640554835
 H         7.7361329017       -0.7670724813        0.7932083301
 H         9.2395938119        0.0870430733        1.0450711908
 H         8.0646237891       -0.0544931878        2.2829470367
 H        11.3365964495       -2.6186978319        2.0073727223
 H        10.9582261048       -1.0597931924        1.6033743612
 H        10.9353482847       -1.3996535687        3.2576860284
 H         7.0458815530       -2.3920630413       -1.4168879800
 H         7.8466498014       -3.9913602760       -1.6420488034
 H         2.4911519300       -2.8267161265       -3.4228169323
 H         2.9185551138       -2.9741542684       -1.8089309447
 H         6.7317370228       -3.5005869038       -4.2177923777
 H         5.8786144956       -4.8657470763       -4.8229554826
 H         7.0742900625       -5.1540154805       -3.6512906782
 H         3.3145562240       -4.8441380454       -3.5693008252
 H         4.4877583613       -6.2168096199       -3.3251247987
 H         3.6198439769       -5.4098000090       -1.9797989139
 H         3.2618432246       -0.4826982474       -3.4161381743
 H         3.8342388432       -0.7382844655       -1.7065777439
 H        -0.9974719678       -1.9949892042       -4.6849700768
 H         0.5646859498       -2.7419451566       -4.1057755375
 H        -0.8970730526        1.4365731831       -2.8131928209
 H         0.0951467498        1.3128714476       -1.3612709911
 H        -1.3798585961        0.3299734515       -1.5761336674
 H         1.3108719791        0.9843956552       -4.0746426678
 H         1.5160967466       -0.6696350510       -4.6520125424
 H        -0.0067825869        0.1565936668       -4.9999123821
 H        -2.2371168371       -3.7962437962       -3.5678438683
 H        -1.2049638084       -4.3223270044       -4.7966549376
 H         0.4296772246       -7.2317683682        0.1293555831
 H         0.5813989633       -5.5627652538       -0.4813957333
 H        -2.9649352387       -5.8861416017       -3.3314686120
 H        -2.4646863688       -7.5527363296       -3.3718686784
 H        -1.8403604353       -6.4703181424       -4.5678132123
 H         0.7803012900       -7.1660009803       -3.5331389248
 H         0.8544115572       -7.4818609473       -1.8820519157
 H        -0.3819721140       -8.2517516089       -2.8544640671
 H         0.2466923446       -6.2371323858        2.2146966172
 H        -1.3625845063       -6.2711536372        1.6718898405
 H        -2.8381829641       -2.5088574255        3.5714316106
 H        -2.0695797561       -1.8374770291        4.8944031214
 H        -2.1283985479       -4.5573614287        3.9035541707
 H        -1.2065458976       -4.1871007639        5.2499572935
 H        -0.9390314955       -5.7130418411        4.4315272802
 H         1.7169796986       -3.4535072511        2.4788399619
 H         1.5709652016       -3.0331317293        4.2244174296
 H         1.5410355083       -4.7146113520        3.7047870562
 H        -3.2232026584        0.0712782664        4.0459105815
 H        -1.6732035116        0.3320124266        3.3816444773
 H        -3.3166664328        3.8997519781        2.3925054803
 H        -1.6116113331        3.7406403203        2.0307059212
 H        -3.9318695315        1.2872073201       -0.4384618513
 H        -5.5063364967        1.5183866091        0.3275492812
 H        -5.0001553298       -0.0607055733        0.1282833347
 H        -5.7090881672        0.8781987035        2.8230929879
 H        -4.2570194369        1.7524072626        3.6928140236
 H        -5.1093823277        2.6745733756        2.5435564026
 H        -3.5420117272        4.0749458376       -0.2031775114
 H        -1.8096123272        4.3731211403       -0.1906543471
 H        -5.5771537492        6.5811438157       -0.0923811492
 H        -5.0914433143        8.1189734258        0.6985742029
 H        -1.1997251107        8.1694069639        1.3532833740
 H        -2.7142057794        8.2016297601        1.9892008768
 H        -2.3635761975        9.2028723823        0.5889123073
 H        -1.8720476489        6.3620870107       -1.8201045736
 H        -1.0696422932        7.8131024363       -1.3684470194
 H        -0.5139824959        6.2894706297       -0.5007820755
 H        -6.0535807319        9.3150462943       -1.5388394496
 H        -6.5343899054        7.7484914961       -2.0479869292
 H       -10.0299566592       11.6160024542       -0.4829375692
 H       -10.8509209683       10.8598777619        1.0339762857
 H        -9.1511357523       11.1151427334        0.9882868447
 H        -9.6496596613        9.7358498373       -2.8099040406
 H        -7.7762347804        9.6133511854       -2.6921629550
 H        -8.5886616060       10.6817341793       -1.6428892918
 H        -8.9237989211        6.8372903331       -2.1112467169
 H        -9.8166109726        6.7922143776       -0.6421824759
 H       -10.4738151539        7.6189665247       -2.0462197299
 Na       -0.8855650746       -1.1009588448        0.4606506114
