155

 C         9.1197928799       -3.4387779385        4.1046441320
 C         8.4019876765       -2.5242022753        3.0990974778
 C         9.1531360920       -2.0499357480        1.7652877824
 C         8.8448044898       -3.0737790971        0.6144590531
 C         7.3679673908       -3.5034702777        0.4940156990
 C         8.5379300266       -0.7895200374        1.1335520040
 C        10.6430136104       -1.8624325377        1.8646968405
 O         7.2563014249       -2.1233444282        3.3538428643
 O         9.6484322653       -3.5032953602       -0.2033795773
 C         6.8357576787       -3.0805052563       -0.8370497030
 C         5.6105902704       -4.0500455517       -1.1219388151
 C         5.2774965861       -4.2710680592       -2.6424826921
 C         4.6036134949       -2.9144637123       -3.0273122857
 C         3.3055680859       -2.5426852363       -2.4438162476
 O         4.9289139399       -4.5869829578       -0.2628970752
 O         5.0215778468       -2.1740321070       -3.9290374270
 C         6.4470119158       -4.5524133101       -3.5526434468
 C         4.1289028886       -5.3221545269       -2.9746894937
 C         2.8015382378       -1.1513426914       -2.7502272402
 C         1.4011015808       -0.7630236424       -2.0997837492
 C         0.1302700659       -0.3294356095       -2.9533287646
 C        -0.9251277668       -1.5424406109       -2.8081230438
 C        -0.8301440280       -2.6996316073       -3.8703274978
 C        -0.4806976783        0.9392989868       -2.3044578840
 C         0.6728735535       -0.0110296684       -4.3961327217
 O         1.3274646534       -0.8418245571       -0.9062389977
 O        -1.7763295088       -1.4890637545       -1.8697005494
 C        -1.4625272674       -4.0409555752       -3.6028278496
 C        -0.5690625186       -4.9956727982       -2.7714076244
 C        -1.1033271782       -6.4108982431       -2.3510601795
 C        -1.2555537391       -6.3357029460       -0.7091782603
 C        -0.0831231188       -6.2202010293        0.2486128372
 O         0.5818408752       -4.7581573666       -2.5280862970
 O        -2.3571221855       -6.3576146668       -0.1251153941
 C        -2.4692571764       -6.8399732833       -2.9931197503
 C         0.0351782958       -7.4416287453       -2.5754387381
 C        -0.6203435455       -5.7341760833        1.6614133990
 C        -0.5998190087       -4.1519024115        1.7878612150
 C        -0.0130951983       -3.5566073424        3.1368644276
 C        -0.7230772296       -2.1247883605        3.1924566218
 C        -2.0622431915       -1.9466842095        3.9553305151
 C        -0.3777227449       -4.3624713477        4.5127534948
 C         1.5220762128       -3.2750334461        2.8252180668
 O        -0.8554108157       -3.4067651710        0.8627775508
 O        -0.1271846718       -1.2431284276        2.5664344492
 C        -2.7746961722       -0.6826492543        3.6623988364
 C        -2.9787805782       -0.5443203700        2.1314455125
 C        -3.6132733788        0.7652861117        1.4970252416
 C        -2.5788440132        2.0319602249        1.4035848193
 C        -3.0345434346        3.4512787975        1.7406089411
 O        -2.7103698056       -1.4599273368        1.3584187505
 O        -1.4478982281        1.7657391109        0.9570522632
 C        -4.0508888483        0.4352519661        0.0478524598
 C        -4.8361264851        1.2371349174        2.4116469709
 C        -2.4600231411        4.4442633848        0.6967450114
 C        -2.9787867359        5.9330953718        1.0573083419
 C        -2.5778547576        7.0427566961       -0.0501013640
 C        -3.8218808121        7.4279099048       -0.9122303823
 C        -5.0945463167        7.7709082074       -0.0919549147
 C        -2.1003770615        8.3634246397        0.6392318337
 C        -1.3934685702        6.6129080580       -0.9660803740
 O        -3.5739145036        6.2712105042        1.9978010254
 O        -3.7680248594        7.5479067322       -2.1003749059
 C        -6.1576695866        8.4558235414       -0.9928373719
 C        -7.4321689941        8.6190873097       -0.1337726277
 C        -8.8500213956        8.6922950085       -0.8120501485
 C        -9.7525878041        9.3149675840        0.2314087337
 C        -9.4631094205       10.7679969943        0.5089352517
 O        -7.3045681443        8.8882644045        1.0549528914
 O       -10.5266486565        8.6052457178        0.8386665785
 C        -8.8572169013        9.5413322120       -2.1161840046
 C        -9.3280710691        7.2398813063       -1.1031580361
 H         8.4500240406       -3.5435383166        5.0268815593
 H         9.4316590789       -4.3663614565        3.6863234751
 H         9.9205739466       -2.8027599364        4.5611306761
 H         7.2154261634       -4.5613494759        0.5581436848
 H         6.8110446690       -3.0348528915        1.2907369462
 H         7.4631473966       -0.8058599173        1.4214977020
 H         8.5929796292       -0.6020363338        0.0579348574
 H         9.0018482170        0.1277031372        1.6106049860
 H        11.0885300718       -2.8094361108        2.2641878607
 H        10.9935450141       -1.8067468115        0.8835877257
 H        10.9854221735       -0.9816560162        2.3358959986
 H         6.3689938040       -2.1026574769       -0.7769424762
 H         7.5173619857       -3.2057341920       -1.6916336101
 H         2.5023765007       -3.1328950430       -2.8626155092
 H         3.2578807551       -2.9123660224       -1.4188890692
 H         7.0973691320       -3.6816999210       -3.7005134556
 H         6.2165295182       -4.7957431147       -4.5336187289
 H         6.9814565741       -5.3594710789       -3.0922210285
 H         4.6074210861       -6.2718053287       -3.0633364780
 H         3.3100453791       -5.4505408848       -2.1953782913
 H         3.6091983460       -5.1129251515       -3.8963358012
 H         2.7781822140       -1.0673724755       -3.8563034935
 H         3.4898318088       -0.3167621972       -2.3662686260
 H        -1.2668628912       -2.4040717654       -4.7661774099
 H         0.2844825661       -2.8823131941       -4.0198831124
 H         0.2200766549        1.5522150978       -1.7695152367
 H        -1.3715281384        0.7691964661       -1.6196757682
 H        -0.8113351348        1.5636224278       -3.1228440343
 H         1.6543053426        0.4509939140       -4.3377762818
 H         0.9055853921       -0.8439772928       -5.0213389387
 H         0.0204542654        0.6266392070       -5.0037494472
 H        -2.3857380039       -3.8099583821       -2.9968625610
 H        -1.8362107650       -4.4515234738       -4.5152108783
 H         0.3376570426       -7.1721130844        0.4457198041
 H         0.7546935549       -5.5933668703       -0.0262958981
 H        -3.2643388648       -6.0485226646       -2.8912802116
 H        -2.8686637063       -7.7431036520       -2.6025979716
 H        -2.4831858201       -6.8612611293       -4.0843766296
 H        -0.1391685985       -8.0641430366       -3.4584765723
 H         0.9545850273       -6.8912955078       -2.8435725883
 H         0.2582203839       -7.9508401104       -1.7073154645
 H        -0.0661936017       -6.2043512086        2.5150782768
 H        -1.5876201956       -6.0704609606        1.8901818540
 H        -2.6679782215       -2.8218781143        3.7116974293
 H        -1.9198524984       -2.0213643595        5.0191100425
 H        -1.3616503703       -4.4474813621        4.8401120091
 H         0.0174690588       -3.7800339689        5.4239350188
 H        -0.0055824012       -5.3899038732        4.5976283830
 H         1.7083447362       -2.3981095270        2.2197557672
 H         2.1369992037       -3.1294797040        3.7014894355
 H         1.8518275467       -4.1337284590        2.3167332704
 H        -3.7449065106       -0.6012811193        4.1308075396
 H        -2.1131681766        0.1982379526        3.9227776424
 H        -4.1544430117        3.4965265202        1.6814586393
 H        -2.6393934856        3.6143486790        2.7002673192
 H        -3.5943032059       -0.4949381217       -0.2092538391
 H        -3.6745745225        1.2039990962       -0.6618375617
 H        -5.1369062924        0.3524589362       -0.0130407113
 H        -5.2504585069        0.2977339095        2.9354670448
 H        -4.4459232624        1.8163308983        3.2981544404
 H        -5.5712607414        1.7360983086        1.7957271228
 H        -2.8400088612        4.1449460480       -0.3285775553
 H        -1.4221882912        4.3831438470        0.8560706019
 H        -5.4837741780        6.8617724801        0.3476050379
 H        -4.9652479374        8.5278985116        0.7076741194
 H        -1.2620484211        8.1250193888        1.3107841946
 H        -2.8760114225        8.8196556734        1.2245293148
 H        -1.6859806533        9.1074363907       -0.0317511454
 H        -1.5102226417        5.6555711692       -1.4174762403
 H        -1.2633188258        7.3550277257       -1.7736215879
 H        -0.4858166179        6.4620356498       -0.3742573627
 H        -5.7301601259        9.3230577540       -1.4299770384
 H        -6.3558260231        7.9113821440       -1.8254707668
 H        -9.8226580312       11.5210358615       -0.1148723593
 H        -9.7139831594       11.0506883149        1.5145524422
 H        -8.3871595457       10.7161216366        0.5352205164
 H        -9.8689710764        9.7572768173       -2.4725365466
 H        -8.4793646358        8.7898778571       -2.8368307330
 H        -8.1998599699       10.3445125169       -1.9737833955
 H        -8.7188090947        6.7598592637       -1.8202071701
 H        -9.3647646126        6.5917759541       -0.1971240320
 H       -10.2822584235        7.2247400877       -1.5058091679
 Na       -0.7527773499       -1.0441746030        0.2237024054
