155

 C         9.3630533951       -3.1508820979        4.0277692075
 C         8.5826210891       -2.3000970404        3.0416266820
 C         9.2350232888       -1.9230955493        1.7646095387
 C         8.7205523786       -3.0744286214        0.6746576363
 C         7.3408463446       -3.7090833667        0.6400705984
 C         8.6959804956       -0.6102598842        1.2178082284
 C        10.7892851807       -1.9234385868        1.7614707477
 O         7.3747071793       -2.1517779883        3.1452338498
 O         9.4247454279       -3.2640704113       -0.2678104055
 C         6.6328066372       -3.4469624980       -0.7862312394
 C         5.3520625630       -4.2256876787       -1.1950124947
 C         5.0959983393       -4.3801154625       -2.7348545756
 C         4.4296179051       -2.9618892699       -3.2518648493
 C         3.3126284554       -2.5411576016       -2.3383479127
 O         4.6105914198       -4.7764500676       -0.4036595601
 O         4.7857603851       -2.1970990738       -4.1017818798
 C         6.4431408730       -4.4897265287       -3.5512111279
 C         4.2032748772       -5.6280298308       -2.8919285555
 C         2.5407267800       -1.3161628298       -2.9574386201
 C         1.3013388606       -0.8861906828       -2.1580057602
 C         0.0563523072       -0.3720595910       -3.0740594124
 C        -1.0100617344       -1.5621376948       -2.7906321290
 C        -0.9478458076       -2.6475876952       -3.8648446703
 C        -0.3091829472        1.0056810696       -2.4968862990
 C         0.2125583235       -0.2577333302       -4.6100391421
 O         1.2466669902       -0.8157894696       -0.9007927191
 O        -1.7865963269       -1.4822773178       -1.8683963226
 C        -1.6769698262       -3.9194458930       -3.2350427579
 C        -0.5868821917       -4.9726649015       -2.6153812200
 C        -1.1111814598       -6.3856629482       -2.1681701242
 C        -1.4344124029       -6.2078724495       -0.5810018152
 C        -0.2198315632       -6.2312406107        0.2969968027
 O         0.6132150181       -4.5857345519       -2.6587314688
 O        -2.5530050360       -6.1347185037       -0.2234762695
 C        -2.4401123210       -6.7267665034       -2.7910358178
 C        -0.0958170489       -7.5288943948       -2.3943067928
 C        -0.2862073587       -5.7019530246        1.7341078829
 C        -0.4120363223       -4.1825195823        1.6984701211
 C         0.1487163974       -3.2915133717        3.0755323977
 C        -0.7153782944       -1.9066418370        3.1993197500
 C        -2.0397552688       -1.8520765338        4.1383050582
 C         0.1237284217       -4.1906543891        4.3344069324
 C         1.6405874296       -3.0524735164        2.6849168945
 O        -0.7239591815       -3.6741658829        0.6506132525
 O        -0.3992546564       -0.9181597832        2.6007655562
 C        -2.8037802006       -0.5290998701        3.7415124555
 C        -2.9602640902       -0.5946017005        2.1109486487
 C        -3.6568246069        0.8129006864        1.3928862226
 C        -2.6009951009        1.8318616738        1.3188723257
 C        -3.0701981656        3.3606122434        1.5823905951
 O        -2.6538304026       -1.5107986638        1.4317370813
 O        -1.4988444724        1.6309294698        0.8917697938
 C        -4.0707951535        0.4572352561       -0.0200688299
 C        -4.9337311372        1.0808661978        2.2590261991
 C        -2.1305749185        4.3882645402        0.8814007535
 C        -2.7897982948        5.8278692208        1.0470632841
 C        -2.4701614005        6.9653757131       -0.0402455443
 C        -3.8130222080        7.2976150231       -0.8823500865
 C        -4.9719429839        7.7564761040       -0.0982526116
 C        -1.9672835632        8.1888245570        0.7276873877
 C        -1.4552015883        6.4038908251       -1.1323383853
 O        -3.5496043077        6.0901026976        2.0290641320
 O        -3.7967540380        7.0935283508       -2.1185030208
 C        -6.0919810532        8.2500527750       -1.0199385612
 C        -7.2682847880        8.6696586665       -0.0767389695
 C        -8.7220879186        8.6396105740       -0.5555788369
 C        -9.7023609543        9.3691739040        0.4516785816
 C        -9.5356519429       10.9600937215        0.6856716752
 O        -7.0913660539        9.1158145598        1.0300365745
 O       -10.5442339418        8.7530513052        1.0454311240
 C        -8.7358609837        9.3669210376       -1.9301881709
 C        -9.0597285951        7.2256955120       -0.8322005659
 H         8.8897145543       -3.2763163519        4.9473181783
 H         9.3896508463       -4.0843786503        3.4386708752
 H        10.3079341588       -2.7512096240        4.2437259047
 H         7.5558088618       -4.8160384069        0.8132913648
 H         6.7735540635       -3.4016252961        1.5467464855
 H         7.6201993460       -0.5958868945        1.2825306925
 H         8.9171143363       -0.5365275362        0.1620994552
 H         9.0997334356        0.2435629252        1.7100993038
 H        11.0860616007       -2.5398393239        2.6687765335
 H        11.3068013735       -2.2372501217        0.8374561275
 H        11.0228933935       -0.8728702831        1.8377858892
 H         6.2341434589       -2.4005997983       -0.6852744368
 H         7.3219280959       -3.6074289270       -1.6288211214
 H         2.5668614291       -3.3578266559       -2.1521102484
 H         3.5944790052       -2.2960509990       -1.3148273884
 H         6.8372268260       -3.4812139637       -3.5807409088
 H         6.3268922891       -4.7737025008       -4.6506674824
 H         7.1899061217       -5.0987793293       -3.0481998912
 H         4.2892791696       -6.2755570502       -1.9952186747
 H         3.1730985819       -5.3755325082       -2.9309746683
 H         4.2913315572       -6.1577532360       -3.8575893174
 H         2.2111912306       -1.4604238825       -3.9760951285
 H         3.2805107638       -0.5822203788       -3.0705123575
 H        -1.4839567133       -2.2390937967       -4.8089745115
 H         0.0307800145       -2.9123133478       -4.1980526367
 H         0.0557046702        1.0392970369       -1.4699435416
 H        -1.3373945205        1.1702466737       -2.4048414398
 H         0.1359372794        1.9004643816       -2.9758435526
 H         0.6794981859        0.6820792732       -4.9259140237
 H         0.8627813299       -0.9767105902       -5.1284359807
 H        -0.7438778383       -0.2159213588       -5.1546848356
 H        -2.4838618630       -3.5166905067       -2.6908606648
 H        -2.0734459492       -4.5509780743       -4.0782097815
 H         0.2632588723       -7.2490517803        0.3185781961
 H         0.5749516980       -5.6018374953       -0.1420283257
 H        -3.1988980143       -6.0686282476       -2.4391797443
 H        -2.8681988937       -7.7172584496       -2.4924514769
 H        -2.5849275318       -6.6408180160       -3.8681526745
 H        -0.3418585663       -8.0421687442       -3.2877070523
 H         0.9610121784       -7.1944801180       -2.3369989287
 H        -0.1308552011       -8.1868023375       -1.4892050057
 H         0.5817875392       -5.8959357871        2.3077551807
 H        -1.0568409733       -6.2468244224        2.3426827914
 H        -2.7496512247       -2.6557998186        4.0793680447
 H        -1.7332701623       -1.8289919557        5.1954518706
 H        -0.8896221981       -4.7013833786        4.4220488042
 H         0.2402327675       -3.8284765085        5.3125714825
 H         0.8019639987       -5.0638040663        4.2422004276
 H         1.6356523051       -2.0194944157        2.2721757882
 H         2.3481645058       -2.9727997662        3.5155243351
 H         2.0319491849       -3.7435728301        1.9011111361
 H        -3.8279152912       -0.5771043804        4.1371968225
 H        -2.3053904518        0.3856547250        3.9195983222
 H        -4.0240312113        3.4800366933        1.1232213184
 H        -3.0233970368        3.6134056480        2.6719640717
 H        -3.5814250973       -0.5361400742       -0.2425950034
 H        -3.6286600579        1.2030074103       -0.6308482537
 H        -5.1531361174        0.3296808175       -0.1559396530
 H        -5.5902167214        0.2501722845        2.1983227222
 H        -4.6490222601        1.1851681644        3.2935028076
 H        -5.4145967940        1.9877824990        1.7727860462
 H        -1.9933801405        4.2072372820       -0.1724325017
 H        -1.1889246821        4.2230444046        1.4323176267
 H        -5.3654521848        6.8733544885        0.4934447487
 H        -4.6802177750        8.5634703647        0.5686908984
 H        -1.1673841579        7.8937211406        1.3688574896
 H        -2.8191249095        8.6545398730        1.2608638257
 H        -1.4565703088        8.9429843473        0.1794851791
 H        -1.9765835486        5.5488427998       -1.7239375730
 H        -1.1020825277        7.1429714428       -1.8372251289
 H        -0.5989919314        5.8309249325       -0.7009157803
 H        -5.7968995178        9.1829610769       -1.6022213499
 H        -6.1557653619        7.4989032434       -1.9450398547
 H       -10.4858119657       11.3444188780        0.1460272490
 H        -9.9496931797       11.1312001279        1.7081120209
 H        -8.6340461521       11.6082879178        0.6570435946
 H        -9.6115416083        9.0466626183       -2.4633156184
 H        -7.9015024609        9.0125330109       -2.5019154016
 H        -8.7656527184       10.4677133388       -1.6481284466
 H        -8.2804790566        6.8932517457       -1.5401987908
 H        -9.0271367603        6.5320440930       -0.0409689586
 H       -10.0349157367        6.9798881422       -1.4097967683
 Na       -0.8015239343       -0.5609522172        0.2349671954
