155

 C         7.9708122243       -2.8139102732        2.9530200330
 C         7.6808123664       -2.0289252379        1.6632070482
 C         8.8265846010       -1.6671468585        0.6222413307
 C         8.2472353258       -2.5100572507       -0.7940015956
 C         7.5098918605       -1.6866016743       -1.7883626041
 C         9.0686233870       -0.1784390918        0.4485500818
 C        10.0874255482       -2.4282918165        0.9017880204
 O         6.5108442088       -1.7778648213        1.3732773434
 O         8.3688617737       -3.7221454795       -0.8486032041
 C         6.7192230251       -2.4866948323       -2.7940523931
 C         5.2905880765       -2.9569221831       -2.4011279817
 C         4.6384281493       -4.3941638718       -2.5651118866
 C         3.4510794592       -4.1064388376       -3.6581654830
 C         2.4250119364       -2.8938640155       -3.4513555110
 O         4.5578536567       -2.0768084025       -2.0482578823
 O         3.0795302651       -4.9487926749       -4.5004281576
 C         5.5323946360       -5.5191944865       -3.1514257759
 C         3.9928336697       -4.7945030166       -1.2774675257
 C         1.0316165376       -3.2494216679       -4.0675893751
 C         0.0572749458       -2.1339261204       -3.4870402615
 C        -1.5037732095       -2.0305619830       -4.0129658159
 C        -2.3891980926       -2.7959031378       -2.9531877983
 C        -3.0302875744       -4.1265750259       -3.2021572774
 C        -1.9256136935       -0.5152318314       -4.0394926614
 C        -1.5644172737       -2.7737440203       -5.4587878263
 O         0.4038875097       -1.3153177085       -2.6643155091
 O        -2.5139731247       -2.2465207114       -1.8329576709
 C        -3.4557926898       -4.7905869577       -1.8888478943
 C        -2.1941996397       -5.2933737592       -1.0748653450
 C        -2.2223707945       -5.7646195077        0.4620816347
 C        -0.9851006168       -5.4294659196        1.2439265408
 C         0.4718262466       -5.6094298280        0.8900938431
 O        -1.0293316736       -5.3244105315       -1.5220669736
 O        -1.2836904075       -5.1098734400        2.3998120785
 C        -3.4421159159       -5.2350929268        1.2609850804
 C        -2.3720948487       -7.4071329960        0.3374172653
 C         1.2876277570       -4.5088864889        1.6995041419
 C         0.7911826381       -3.1007026341        1.2129811815
 C         1.5437419856       -1.8291560829        1.6932904577
 C         0.4274520633       -0.8951344644        2.0808502569
 C        -0.4282827538       -1.3280321851        3.2985555112
 C         2.5121423450       -1.9480113222        2.9156953657
 C         2.2503659946       -1.1783122386        0.5114944614
 O         0.0227861576       -3.0219665927        0.2577017610
 O         0.1149627121        0.0903563326        1.4369156935
 C        -1.8471829263       -0.6586704099        3.3304252405
 C        -2.4969929082       -0.8584126667        2.0041071155
 C        -3.3879208352        0.3319490920        1.2897020451
 C        -2.5368312115        1.4942646165        0.8525680332
 C        -2.7853750665        2.8680777312        1.4201020463
 O        -2.3841011092       -1.8477708097        1.3373204853
 O        -1.6828377041        1.3308969304        0.0189775451
 C        -4.0828825966       -0.2031959014        0.0174118920
 C        -4.4886103328        0.7384915974        2.3196466994
 C        -1.9590137591        3.8985507820        0.6508104130
 C        -2.1340534731        5.2818545976        1.3207977755
 C        -2.1040233203        6.6177263431        0.4431152659
 C        -3.5461551568        6.7454063601       -0.1607694233
 C        -4.2345115862        8.1212583536       -0.2650844327
 C        -1.5977870637        7.6580977307        1.4876635360
 C        -1.1372144374        6.5584355902       -0.8194526014
 O        -2.2880631638        5.2400314033        2.5574531388
 O        -4.0436298735        5.6860993712       -0.6322358821
 C        -5.6718558858        7.9620137335        0.3542919856
 C        -6.6592061510        9.0081371366        0.0662648840
 C        -7.7822577222        9.2444936869        1.1899634300
 C        -6.9845114083        9.6319682393        2.4794501919
 C        -6.5495053202       11.2120996904        2.8163359465
 O        -6.5753042508        9.7589339012       -0.8901514048
 O        -6.5711380776        8.7140210461        3.1780287346
 C        -8.7731659588       10.3296048651        0.7358893950
 C        -8.5366472431        7.9553319475        1.6606368345
 H         7.1686055720       -2.7083749264        3.5932807426
 H         8.1059378801       -3.8767487659        2.8530110373
 H         8.9648572038       -2.4284512427        3.2825759660
 H         6.8595930038       -1.0072818684       -1.2056833124
 H         8.1832396582       -0.9902508981       -2.3145377931
 H         8.0825424128        0.2458400494        0.6873178195
 H         9.3699296714        0.0975485236       -0.5662024003
 H         9.7201023892        0.2748528644        1.2752306991
 H         9.8557691264       -3.2846995868        1.6456143613
 H        10.6857339264       -2.8316571489        0.0362872781
 H        10.7960270162       -1.8150892374        1.4481665561
 H         6.6775557818       -1.9006684188       -3.7053914146
 H         7.4090442418       -3.3615772649       -2.8875089024
 H         2.2573023919       -2.7285550148       -2.3606758891
 H         2.9327054217       -2.0484444663       -3.8405280293
 H         6.0607068905       -5.1991309172       -4.0564910536
 H         5.0120819007       -6.3027370460       -3.5512322337
 H         6.2292266354       -5.9111092087       -2.4551810908
 H         3.4023300397       -4.0399514594       -0.7954237336
 H         3.2815786367       -5.5680964088       -1.5630326219
 H         4.7068217555       -5.1669804082       -0.5663547875
 H         0.7694209998       -4.3000726956       -3.9208087368
 H         0.9419310699       -3.1054331175       -5.1217915744
 H        -3.8946921946       -4.0390807679       -3.9564009023
 H        -2.3870084494       -4.8465022052       -3.6968305631
 H        -2.5182853447       -0.3154749969       -3.1473550099
 H        -2.4524513799       -0.2933235268       -5.0195157555
 H        -1.0471287360        0.0908647265       -3.8878927406
 H        -1.1022411544       -2.1312315405       -6.1600997258
 H        -1.0011502645       -3.6732114433       -5.4303652198
 H        -2.6288716766       -2.9599463487       -5.7957448142
 H        -4.1257443799       -4.1896232751       -1.2778607124
 H        -4.0724005051       -5.7303889123       -2.0343174492
 H         0.6800972325       -6.5771669119        1.4658290603
 H         0.7913620439       -5.7755315986       -0.1479950260
 H        -3.6133294892       -4.2013255245        1.4583219983
 H        -3.5919335804       -5.5768547733        2.2354778308
 H        -4.3385199151       -5.4562855045        0.7229861462
 H        -3.3583142326       -7.6066072478       -0.2041805203
 H        -1.7537657932       -7.8572458020       -0.3554320881
 H        -2.3836537995       -7.8393078661        1.3358286690
 H         2.3473694952       -4.6326012027        1.5390982282
 H         1.2154971493       -4.6783455814        2.8089305390
 H        -0.5863342136       -2.4029694922        3.1596884806
 H         0.0940339682       -1.2365975021        4.2790973236
 H         2.0859644160       -2.4536879112        3.7881583836
 H         2.7301873430       -0.8765190670        3.1266558175
 H         3.3921310967       -2.3754958052        2.5590803573
 H         3.2982906183       -1.2508765693        0.7360776838
 H         2.0931894184       -1.6488594929       -0.4546383284
 H         1.9725334558       -0.1680984527        0.3611738687
 H        -2.3281270332       -1.0530539245        4.2269488224
 H        -1.7017028752        0.3885725719        3.4706365738
 H        -3.9376932779        3.1350521614        1.2917598662
 H        -2.3085125961        2.9391485790        2.4854633684
 H        -3.3680626478       -0.1543455238       -0.7627484024
 H        -5.0166448135        0.2430525658       -0.2699457831
 H        -4.3561216137       -1.2148670858        0.2150022061
 H        -4.9774593890       -0.1787377441        2.7538836404
 H        -4.0604843908        1.2524090586        3.2196741829
 H        -5.3039147733        1.2504343869        1.6962703049
 H        -2.1949489506        4.0043769075       -0.4634935285
 H        -0.9170574702        3.6863246760        0.6438437950
 H        -3.7598128545        9.0100470557        0.1309290084
 H        -4.3851061171        8.4272552210       -1.3519085223
 H        -0.6238862594        7.2077083712        1.7027359756
 H        -2.1725251665        7.7400374404        2.3534360289
 H        -1.3151927986        8.5831795893        1.0202292555
 H        -1.6420728150        5.9350912852       -1.4863509334
 H        -0.9392687484        7.6082413249       -1.1841145932
 H        -0.1386823959        6.0290248704       -0.7021368172
 H        -6.1523155553        7.1078092893       -0.1863157810
 H        -5.5651163191        7.7687718408        1.3673596925
 H        -6.1982054310       11.6426431914        1.9154718656
 H        -7.2991001346       11.8944122704        3.2835157972
 H        -5.6505272709       11.1689569921        3.4769126113
 H        -9.7512918031       10.3786065574        1.1808451095
 H        -9.0835282308       10.1332823893       -0.3013872266
 H        -8.3350697460       11.2918788939        0.6440171302
 H        -9.1865880330        7.5877520997        0.7870510801
 H        -7.9178906013        7.1083141979        2.0317184009
 H        -9.1946535472        8.3288433911        2.4053146286
 Na       -0.8491250937       -0.8689457724       -0.7684600802
