155

 C         7.7332190410       -2.8396182974        2.7579526644
 C         7.5723947192       -1.9889785853        1.4934166864
 C         8.7666924991       -1.8366051326        0.5198473927
 C         8.2257788043       -2.4890720408       -0.7960675362
 C         7.2570890319       -1.5891543193       -1.7740243774
 C         9.0495083813       -0.2665388681        0.3230027863
 C        10.1371230847       -2.5938304231        0.8233751464
 O         6.5779067055       -1.3914077289        1.1971695462
 O         8.2269326763       -3.6966622453       -0.8799145294
 C         6.6149155372       -2.6103263633       -2.8581792706
 C         5.1784986393       -2.7451854513       -2.6269883110
 C         4.5718118668       -4.2405362348       -2.6494360336
 C         3.3285141307       -4.1877084584       -3.6792684203
 C         2.3170845702       -3.1384635457       -3.3460040752
 O         4.5501246459       -1.8882223768       -2.0014041475
 O         3.2174370670       -4.8788577082       -4.6337169600
 C         5.5384830316       -5.1927710799       -3.2712494219
 C         4.0662451725       -4.7790510277       -1.2448626111
 C         1.0189458351       -3.1623406971       -4.0744082764
 C        -0.0147456415       -2.2085321965       -3.3814421637
 C        -1.4898641097       -2.2350112714       -3.8736708507
 C        -2.2947796397       -2.9691345783       -2.6399843835
 C        -3.1842971016       -4.1803562379       -2.9480496348
 C        -1.9504402781       -0.7472618874       -4.0492263470
 C        -1.7753079732       -2.8803358601       -5.2572283527
 O         0.3872404629       -1.3880523596       -2.5573975889
 O        -2.3569322229       -2.4145707688       -1.5827535250
 C        -3.5306765753       -5.0071079418       -1.6625924387
 C        -2.1322497511       -5.4816748864       -0.9029916675
 C        -2.2038085562       -5.8487094261        0.7288997529
 C        -1.0806175169       -5.2092582837        1.5175124479
 C         0.3888171444       -5.6841520189        1.1008983805
 O        -1.1384296833       -5.5949689520       -1.5883142978
 O        -1.2356380239       -4.5922045680        2.5332451536
 C        -3.5839374234       -5.3928180926        1.2199462414
 C        -2.2581458582       -7.3933707832        0.6024855068
 C         1.3373483057       -4.6052011136        1.4888643919
 C         0.9918393175       -3.2586084378        0.8986244014
 C         1.5838466039       -1.8770642022        1.3741483749
 C         0.4367021567       -0.8481869257        1.9431372833
 C        -0.3956001521       -1.1907656379        3.2399895381
 C         2.5859401889       -2.0512138781        2.4887259347
 C         2.2890796240       -1.2889219705        0.1298613517
 O         0.1718064404       -3.1947102502       -0.0132819560
 O         0.2265195196        0.1983435996        1.3844468766
 C        -1.8579851078       -0.5390849614        3.2060665956
 C        -2.6610247006       -0.9048319269        1.9141980193
 C        -3.3993067888        0.2850928213        1.2766023847
 C        -2.4627953824        1.4679412096        0.8159556070
 C        -2.6747175820        2.8901576347        1.4358588915
 O        -2.5422304722       -2.0033603315        1.3179653802
 O        -1.5879364917        1.1621158599       -0.0132197912
 C        -4.1647073542       -0.2082275126       -0.0543124254
 C        -4.4339006418        0.7160050458        2.3456768548
 C        -2.1169073883        4.0123922735        0.5363917042
 C        -2.1130648181        5.3441775044        1.3371051863
 C        -2.1287452651        6.7318895071        0.4105233585
 C        -3.5706998979        6.8344115504       -0.1996761596
 C        -4.2690128740        8.1570766912       -0.1641010293
 C        -1.8349420094        7.9951167680        1.3509466357
 C        -0.9894915988        6.4991150916       -0.6728001983
 O        -1.9371468402        5.4213355425        2.5253331589
 O        -4.0736874418        5.8294377701       -0.6083690060
 C        -5.6777482248        7.9890712739        0.4200919862
 C        -6.6961167074        9.1193916772        0.2217928840
 C        -7.6681253174        9.3363915043        1.3468269460
 C        -6.7263865899        9.6813426259        2.6137574514
 C        -6.4048460832       11.1431950367        2.9070875676
 O        -6.6681473765        9.7929918470       -0.7518570125
 O        -6.2998515073        8.7179083916        3.2044085907
 C        -8.5742576043       10.4752268681        0.9505582895
 C        -8.5568234086        8.0656716304        1.4996315987
 H         6.8040262311       -2.6077831626        3.3727194883
 H         7.5234521353       -3.8593446434        2.4781446523
 H         8.6451890766       -2.8346509015        3.2842907335
 H         6.4569600540       -1.1169095536       -1.2114348278
 H         7.7827429190       -0.7325865534       -2.1999236443
 H         8.3383975942        0.3749469700       -0.2418132607
 H        10.0351493696       -0.1845242087       -0.1285058882
 H         9.0269041921        0.1371885502        1.2856147863
 H        10.0171091016       -3.4879135915        1.2739315559
 H        10.6531565224       -2.7353464729       -0.1258936201
 H        10.8697956812       -1.9974109633        1.4582505766
 H         6.8490207119       -2.3307015014       -3.9041134200
 H         7.1318451174       -3.5167275956       -2.6060339994
 H         2.1063387343       -3.2657447370       -2.3058752856
 H         2.7968435806       -2.1104935827       -3.3778310240
 H         5.7274826017       -5.0655240113       -4.3266498012
 H         5.1383369298       -6.2638661531       -3.1798457929
 H         6.5195827023       -5.2551018626       -2.7936080031
 H         3.1604746191       -4.2412579760       -0.9219861007
 H         3.7967631082       -5.8024424640       -1.2222312576
 H         4.7687280160       -4.4779284499       -0.4742865569
 H         0.4757388840       -4.1294442194       -4.0373305390
 H         1.0545819141       -2.9070290131       -5.1774980095
 H        -4.0678195440       -3.9378186314       -3.4471840940
 H        -2.7314122848       -4.8750851867       -3.6685114184
 H        -2.4946842426       -0.4422530147       -3.1737135459
 H        -2.5002023662       -0.6400339446       -4.9291680283
 H        -1.0587241930       -0.0983205146       -4.0207159390
 H        -1.0592145200       -2.5351222367       -6.0574101463
 H        -1.8022552060       -3.9936301075       -5.1856795588
 H        -2.7238866039       -2.5377558684       -5.5546235224
 H        -4.0506664865       -4.2896655987       -0.9449747555
 H        -4.2347598188       -5.8062230393       -1.8197315270
 H         0.5587127492       -6.6942792515        1.4027479834
 H         0.4239690670       -5.6526507872       -0.0036315981
 H        -3.7367716640       -4.3278137883        1.2105366629
 H        -3.7982929811       -5.5090043545        2.2897355982
 H        -4.4931765718       -5.6862023843        0.6833561972
 H        -2.6718204225       -7.6844966464       -0.3368213410
 H        -1.1982602811       -7.8891156277        0.5565001587
 H        -2.8570287968       -7.7961303934        1.4258233015
 H         2.4050796043       -4.8445500327        1.2224120915
 H         1.3820893395       -4.4339555002        2.5545141983
 H        -0.3959680775       -2.3114779675        3.4039639257
 H         0.1743621984       -0.7775166826        4.0814474498
 H         2.1688757097       -2.6505128249        3.2617007768
 H         2.9704588064       -1.1263958670        2.8452158810
 H         3.5014754883       -2.5686925742        2.0455274528
 H         2.4787823842       -2.0212617481       -0.6778357317
 H         1.7383068672       -0.4700497814       -0.2692189078
 H         3.2243944599       -0.7726565175        0.4206599714
 H        -2.3392813022       -0.9120303244        4.1504581133
 H        -1.7013091290        0.5612756870        3.4319737746
 H        -3.6748368724        2.9395648107        1.5606151199
 H        -2.1631857443        2.9800293802        2.3410798980
 H        -3.8257385813        0.3881726586       -0.9399318585
 H        -5.2342238519       -0.0219450818        0.0160054600
 H        -4.0574271891       -1.2848610850       -0.2856509183
 H        -4.8670121536       -0.1617259251        2.7432977386
 H        -3.8516114197        1.0938361647        3.1303947728
 H        -5.1491406998        1.3302481572        1.9968059012
 H        -2.7533939704        4.2008797306       -0.3310075337
 H        -1.1267886509        3.8737845184        0.0250634152
 H        -3.7384289979        8.9706046844        0.2924902020
 H        -4.4381986856        8.4922860824       -1.1494201150
 H        -0.9976832850        7.8654347843        1.9938963559
 H        -2.7685565166        8.1045519844        1.9737772988
 H        -1.6765063115        8.8774684818        0.7695562536
 H        -1.1307968254        5.6676972990       -1.4231378615
 H        -0.6369039555        7.4333517742       -1.0410666182
 H        -0.1603606574        6.1897326471       -0.0701101944
 H        -6.0617428740        7.1019139308       -0.0725008544
 H        -5.5089934266        7.7569713437        1.5387151375
 H        -6.5288005958       11.7847622845        1.9846003732
 H        -7.1126587647       11.4313326179        3.7186692708
 H        -5.3973446177       11.3147207479        3.3275825700
 H        -9.0216094222       10.8249258313        1.9102682443
 H        -9.4423667612       10.3714178524        0.3489151791
 H        -8.0334172493       11.3960254280        0.5938217281
 H        -9.1323622202        7.9556130741        0.6589204835
 H        -7.9477813161        7.1654365937        1.6069059062
 H        -9.2010071207        8.2332900943        2.4053559953
 Na       -0.8577647894       -1.1080275935       -0.5939658087
