155

 C         6.1060649100       -2.4357913536        1.1628794589
 C         7.2941033944       -1.4239809481        0.7259732938
 C         8.3441711751       -1.8740597540       -0.2105825688
 C         7.5325691931       -2.3566197123       -1.5137182927
 C         7.3408309300       -1.3922079341       -2.8123051689
 C         9.3718478740       -0.7872258092       -0.5037466505
 C         8.9802075565       -3.1327460260        0.5327441189
 O         7.1015141570       -0.2637400969        0.9900254089
 O         7.2513133911       -3.5454369707       -1.5838944687
 C         6.6359885271       -2.2749858410       -3.9296921114
 C         5.2910199173       -2.8266232866       -3.2931474916
 C         4.6003202751       -4.1212710495       -3.8666595565
 C         3.1562081211       -3.9157869142       -4.3239365653
 C         2.0627394508       -3.6387231145       -3.2391702434
 O         4.7489405146       -2.2952105370       -2.3260662894
 O         2.9150976649       -3.6816194665       -5.5100595506
 C         5.4348005058       -4.7731359075       -5.0510973350
 C         4.6802958275       -5.1751356312       -2.7153390951
 C         0.6421947038       -3.8703560318       -3.7961032621
 C        -0.4949670436       -3.0086681214       -3.2820999369
 C        -1.9051420045       -3.4498927799       -3.6510520209
 C        -2.6677983449       -3.6214192834       -2.2381499328
 C        -3.2551104367       -4.9602400926       -1.8992962669
 C        -2.6179426547       -2.2986769485       -4.3931747108
 C        -1.9875590062       -4.6376049486       -4.5925806569
 O        -0.2745260701       -1.9402202675       -2.6982639479
 O        -2.7280314217       -2.7425083511       -1.4599633099
 C        -3.3559242582       -5.3176532212       -0.4768990470
 C        -2.4521870398       -6.4721612422       -0.0352393949
 C        -2.1295825536       -6.5824606293        1.5295274349
 C        -1.0350379056       -5.5648923858        1.9037478093
 C         0.2245950423       -5.4481068984        0.9478773606
 O        -1.8698874578       -7.0224325529       -0.9729710726
 O        -1.1915484941       -4.8376723201        2.8276875995
 C        -3.4160931221       -6.3333283837        2.2916711697
 C        -1.5538641518       -8.0026311565        1.6214550727
 C         1.1548565224       -4.3327431775        1.4747892583
 C         0.7243209425       -2.9941237529        1.0352033570
 C         1.6193674383       -1.6734949278        1.6635168092
 C         0.6803524462       -0.5518798340        1.8613899913
 C         0.1918281928       -0.2177584303        3.2384893766
 C         2.4022610859       -2.0284465597        2.9707175877
 C         2.6583343946       -1.3547078800        0.6185445264
 O        -0.0906759783       -2.7601290087        0.1804174826
 O         0.2880362392        0.1318844660        0.8982233460
 C        -0.9793176083        0.7441531405        3.2665011800
 C        -2.0511061608       -0.0454556828        2.3810078828
 C        -3.3185737507        0.7437096717        1.7751808866
 C        -2.7654813737        1.7205451422        0.6741592165
 C        -3.1328181558        3.1744174412        0.8108868523
 O        -2.0149668585       -1.2497094591        2.1722353058
 O        -2.0654377138        1.2867529928       -0.2806863289
 C        -4.3129136647       -0.2739131876        1.1238503458
 C        -3.9829220260        1.4495224173        2.9839759392
 C        -2.2010657263        4.1054013330       -0.1456679142
 C        -1.7590582589        5.4132913852        0.6259223305
 C        -1.9037648970        6.7132813570       -0.0343356996
 C        -3.4094497279        7.0947271741        0.0207776206
 C        -3.9801408347        8.4549713576        0.5755093141
 C        -0.9949230308        7.8239255252        0.5420720807
 C        -1.6035541704        6.5189514495       -1.5542237033
 O        -1.4918379102        5.2393735180        1.8249803591
 O        -4.1778185270        6.1886194616       -0.1996919238
 C        -5.4533697984        8.5244709447        0.2347557219
 C        -6.2216767645        9.7005863792        0.6263600509
 C        -7.0692420109        9.8357677383        2.0979899224
 C        -5.9799585275        9.7576806183        3.2414483247
 C        -5.4763190110       11.0620847755        3.8806904829
 O        -6.2254715106       10.6543038978       -0.1047860934
 O        -5.6422955591        8.6906027425        3.7279221538
 C        -7.9247905618       11.1011504361        2.1244568354
 C        -7.9716820248        8.6309866388        2.2190370745
 H         5.8301258262       -2.1786539986        2.2332157636
 H         5.3136395175       -2.0288253025        0.5733415295
 H         6.1745083382       -3.4649260336        0.9917399950
 H         6.6800975187       -0.5216608228       -2.6936944726
 H         8.2649744164       -1.0468801181       -3.2407259022
 H         8.8867685254        0.1837632510       -0.9336139436
 H        10.1488696351       -0.9507385623       -1.3096117995
 H         9.9145121334       -0.4009955028        0.3632200348
 H         8.5220334996       -4.0105560840        0.1233334959
 H        10.0975617845       -3.0651040014        0.5528691283
 H         8.6830854661       -3.0285449226        1.6435914352
 H         6.4815941835       -1.6425463784       -4.8384770160
 H         7.2123136244       -3.1328698407       -4.3006071194
 H         2.3379283098       -4.4906819257       -2.5760036936
 H         2.1659502071       -2.6950511057       -2.7908811951
 H         5.5264221938       -4.2448977635       -5.9376263789
 H         4.8304062610       -5.6396290319       -5.3924841434
 H         6.3420749003       -5.1295843481       -4.6597215648
 H         3.9612859354       -5.0470073621       -1.9370305975
 H         4.5382926591       -6.2173779075       -3.0802611652
 H         5.6289236846       -5.0918162192       -2.1923709191
 H         0.4446917462       -4.9488001784       -3.6092646753
 H         0.6038845325       -3.7627176652       -4.8936707383
 H        -4.1762382369       -5.0774092717       -2.5034414235
 H        -2.5875533402       -5.6804993124       -2.3494989231
 H        -2.2854946798       -2.1051275136       -5.4616912896
 H        -2.5973514273       -1.3654710655       -3.8783348516
 H        -3.6971474168       -2.5361170996       -4.4911120991
 H        -1.7261430479       -4.3633430388       -5.6293254762
 H        -1.3808505256       -5.5280072543       -4.3578375194
 H        -2.9738042885       -4.9767417950       -4.6667857071
 H        -2.9716938232       -4.5364370227        0.2054028102
 H        -4.4546311329       -5.5740846267       -0.2259213798
 H         0.6456099718       -6.4303168681        0.6822402671
 H        -0.2713995034       -4.8950213995        0.1470221430
 H        -3.8613904166       -5.3743600273        2.1247409459
 H        -3.2973503495       -6.2797114782        3.3488037965
 H        -4.2242910805       -7.0201525450        2.0697377470
 H        -0.9285895795       -8.1489399718        0.7878846639
 H        -0.7326786919       -8.2350150805        2.3746309618
 H        -2.3732368218       -8.6951603730        1.7276381074
 H         2.1831151678       -4.4990398959        1.1379387793
 H         1.1055011834       -4.2816765664        2.6045921611
 H        -0.0042918795       -1.1786711554        3.6952991179
 H         1.1091852418        0.2790273434        3.7662432403
 H         1.7821765145       -2.5340788610        3.6761157872
 H         2.9160317288       -1.2232908101        3.4006704574
 H         3.2394850096       -2.7521314576        2.8329877371
 H         3.5776749297       -1.3075541138        1.1463827384
 H         2.7133236842       -1.9875456728       -0.2182992201
 H         2.4226707363       -0.3578762420        0.1713084664
 H        -1.3407834820        0.8301174939        4.3256107615
 H        -0.8437105663        1.7492170032        2.7284894379
 H        -4.0927029797        3.3868915836        0.5125560199
 H        -3.0478520560        3.4720487582        1.8420814382
 H        -4.6022640340       -0.1913407602        0.0838929392
 H        -5.1090792751       -0.4443518310        1.8171904228
 H        -3.8782283968       -1.2474290845        1.3025525102
 H        -3.7678609364        1.0389338326        4.0150800579
 H        -3.4993147582        2.4276393223        3.1645263071
 H        -5.0633293305        1.5189592446        2.9750279427
 H        -2.5953095596        4.4463412894       -1.0540569852
 H        -1.3331504951        3.4464838760       -0.2668293627
 H        -3.6037722317        8.6013331209        1.6439795125
 H        -3.5486318443        9.2493810894        0.0396106838
 H         0.0270426744        7.6455578832        0.5431504759
 H        -1.2831806455        8.0031184962        1.6106337398
 H        -1.0858003455        8.7539265997        0.0315317341
 H        -2.2112206531        5.7009381630       -1.9964879248
 H        -1.6938590676        7.5288176667       -1.9748224011
 H        -0.5585375316        6.2022597992       -1.6597888753
 H        -5.4557984629        8.4015968304       -0.8844718770
 H        -6.0095039560        7.6764780872        0.6075437795
 H        -5.6234863977       11.9452806153        3.2612239317
 H        -6.2361887698       11.3796043115        4.6463814045
 H        -4.4256061490       10.9550927893        4.2923963775
 H        -8.2933339252       11.2916243518        3.1245180640
 H        -8.8510393980       11.1354265326        1.5933286489
 H        -7.3781342726       11.9683865249        1.7861621726
 H        -8.6005596395        8.6105375298        1.3851478758
 H        -7.4235714707        7.6857733949        2.3485032293
 H        -8.5256321854        8.8654154055        3.2043612981
 Na       -1.2377513819       -1.1041425875       -0.6116338054
