155

 C         7.1118781720       -2.5836169042        1.2688002651
 C         7.5588067582       -1.5573576442        0.0848229555
 C         8.5587924111       -1.9511268774       -1.0489310580
 C         7.7807697348       -2.3469675060       -2.2883614217
 C         6.6760583347       -1.4514738854       -2.7872373642
 C         9.6435028606       -0.7567221076       -1.1566684356
 C         9.2604445881       -3.2157167532       -0.5852336090
 O         7.0807754633       -0.4544689195       -0.0277194067
 O         8.1878668538       -3.3275356388       -2.9320525955
 C         5.8892308172       -2.1024681539       -3.9720317823
 C         4.9121234122       -3.1827149025       -3.5767470395
 C         4.2273771626       -4.0375816295       -4.6661385358
 C         2.6933588496       -3.4205537478       -4.8829497764
 C         1.8036611191       -3.1199888897       -3.6401407558
 O         4.4768924554       -3.1945378661       -2.4050664247
 O         2.2316795027       -3.4116852952       -6.0028605217
 C         4.9205250918       -3.9776353487       -6.0539512814
 C         4.1291874434       -5.4501431816       -4.0302165425
 C         0.4506065153       -3.8829205884       -3.6429331287
 C        -0.6524508011       -3.2027064423       -2.6095851767
 C        -2.1457987051       -3.4589115527       -2.9276078182
 C        -2.9265112988       -3.7693015366       -1.5768185675
 C        -3.6556469109       -5.1967979686       -1.4000956687
 C        -2.7749609972       -2.1521277534       -3.4274100131
 C        -2.3832029441       -4.6574730676       -3.9091075800
 O        -0.2284209114       -2.3491151137       -1.9004783525
 O        -3.1692747145       -2.9069790407       -0.7390510234
 C        -3.3922148184       -5.5953563735        0.0097021801
 C        -2.0253145047       -6.2218516126        0.3409545804
 C        -1.7789283278       -6.8248273447        1.8174509294
 C        -0.8126867508       -5.7977086183        2.5407804715
 C         0.6202443314       -5.5810972609        1.8633183459
 O        -1.2833656321       -6.3410778933       -0.5499103699
 O        -1.1650893915       -5.3849280480        3.6444394517
 C        -3.0276806232       -7.1362813280        2.6960784308
 C        -0.9043587365       -8.0764302035        1.6891736413
 C         1.2623030240       -4.2359603111        2.1788592131
 C         0.6179656930       -3.0431249445        1.6638035366
 C         1.4870275381       -1.6375483884        1.8334466249
 C         0.5061331821       -0.5440586342        1.9280638688
 C        -0.0628907202       -0.1562457611        3.3456398720
 C         2.5974291292       -1.7521780004        2.9493352976
 C         2.2125392319       -1.5362376188        0.3618185312
 O        -0.3837163247       -3.0866324043        1.0047360774
 O         0.1058428599        0.0464925605        0.9076496228
 C        -1.2495913114        0.7318264417        3.2317957043
 C        -2.4018777323        0.0685870389        2.4717000767
 C        -3.5887698155        0.9963160797        1.7992301162
 C        -2.8597290740        1.7063280729        0.6394753089
 C        -2.9740401407        3.2858537581        0.6006885289
 O        -2.4092682104       -1.1188444526        2.1855828686
 O        -2.3929248381        1.0402233638       -0.3170038525
 C        -4.7257336597        0.1159445459        1.2118151847
 C        -4.2392042435        1.7988668847        2.9161779664
 C        -2.4705377332        3.9694796545       -0.7412132549
 C        -1.7894950119        5.2805706915       -0.1994289649
 C        -2.1236761377        6.6494471914       -0.8391318295
 C        -3.7269433882        6.9986224141       -0.4927830430
 C        -3.9977379782        8.3211405616        0.1891434633
 C        -0.9813806784        7.6448347212       -0.3877734202
 C        -2.0432505697        6.6582766678       -2.3993141531
 O        -0.9289182382        5.1868358097        0.6897056479
 O        -4.5239027053        6.0855256297       -0.6008384338
 C        -5.4083025849        8.6210646298        0.5890579665
 C        -5.5445560249       10.0288025569        1.1768578073
 C        -6.3993512432       10.1868963078        2.5309763302
 C        -5.4955059967        9.7636986435        3.8088019188
 C        -4.7282579762       10.8847357465        4.5418486843
 O        -4.8884938296       11.0001562626        0.8985762892
 O        -5.3653918384        8.5801853671        4.0735144425
 C        -6.9663086562       11.5845864840        2.7187018328
 C        -7.5424222322        9.1480964299        2.5840777243
 H         6.4234466697       -2.1824806866        2.0698645996
 H         6.7914091847       -3.5629197398        0.9117815385
 H         8.0354935683       -2.6299277062        1.7083890203
 H         5.9212760580       -1.3605276246       -2.0167174653
 H         7.0777412774       -0.4704427454       -3.1207561740
 H         9.0594507711        0.1516530519       -1.5818798795
 H        10.5949174514       -0.8574491388       -1.7936682886
 H         9.9299192731       -0.3758400462       -0.1566923600
 H         8.5711698826       -4.0252151182       -0.6422586099
 H        10.1567876756       -3.5388397541       -1.1848956356
 H         9.5047054529       -3.0957039001        0.5381890862
 H         5.2961339152       -1.3234034602       -4.5091995866
 H         6.5038927570       -2.4998334945       -4.7905326923
 H         2.1302783316       -3.2080080155       -2.5756935573
 H         1.5693368831       -2.0549852219       -3.6289635172
 H         5.0381012510       -2.9475624752       -6.2257537660
 H         4.2551303263       -4.3332411425       -6.8519690552
 H         5.9108309245       -4.4487775700       -6.1087187366
 H         3.7245248984       -5.2724741172       -3.0375383719
 H         3.4246652543       -6.1623881551       -4.5703142785
 H         5.0809891380       -5.9950331998       -4.0033462758
 H         0.6291507651       -4.8445570004       -3.1492261407
 H        -0.0159718646       -4.1118419204       -4.5972101949
 H        -4.6993558942       -5.1253504888       -1.6629388583
 H        -3.1959306708       -5.8311262106       -2.1310334761
 H        -2.3574458823       -1.8317908231       -4.4144777858
 H        -2.3353331776       -1.3871129786       -2.7789863850
 H        -3.8155657336       -2.0130291195       -3.3518440035
 H        -1.8613343729       -4.5516088083       -4.8317666954
 H        -1.9745404156       -5.5551706260       -3.4696839753
 H        -3.4676822426       -4.7234466032       -4.1470387977
 H        -3.4009598540       -4.6909303713        0.6881657872
 H        -4.2276513665       -6.1773921330        0.4350268704
 H         1.1865322195       -6.4851003677        2.2208848504
 H         0.5685016566       -5.8318509114        0.8137797564
 H        -3.7711893135       -6.3271553201        2.6942980992
 H        -2.7694925284       -7.3530332830        3.7327240404
 H        -3.4772849818       -8.0365806410        2.2782795705
 H        -0.7000461032       -8.3089862837        0.6988148005
 H        -0.0604305470       -8.0874634639        2.4705908240
 H        -1.5520421941       -8.9118152934        1.9467295271
 H         2.3258521644       -4.3206184427        1.8464706386
 H         1.3369276743       -4.1289346236        3.2810339885
 H        -0.1242518073       -1.1127609176        3.9022096916
 H         0.7540317961        0.3923006046        3.9186783947
 H         2.2958966043       -2.1691844278        3.9406274141
 H         3.0282466402       -0.7801468288        3.0710195523
 H         3.3878006728       -2.3217854704        2.4893253081
 H         3.2691884059       -1.3425308296        0.3999489590
 H         2.0640497506       -2.5553082559       -0.0397432986
 H         1.7723176322       -0.7635279969       -0.2782225256
 H        -1.6764860718        1.0196449031        4.2504021457
 H        -1.0843750230        1.7544357588        2.8004005384
 H        -3.9943482347        3.4136930886        0.7599998403
 H        -2.1217768815        3.6382487831        1.3814491754
 H        -4.6854319611       -0.8411123514        1.6994274256
 H        -4.5787938061       -0.1440394553        0.1236574079
 H        -5.6341633111        0.7256185938        1.3665894027
 H        -4.9742365303        1.2417373497        3.5636108568
 H        -3.4224198742        2.1874981312        3.5380060776
 H        -4.7485692705        2.6597063451        2.4814543087
 H        -3.2924982295        3.9564425467       -1.4697590278
 H        -1.7159140749        3.4123361335       -1.2018783435
 H        -3.3386264938        8.5251519731        1.1092015903
 H        -3.6761600816        9.0819950483       -0.5712016024
 H        -0.1027963383        7.5734041722       -0.9619301459
 H        -0.6912620215        7.6390637352        0.6680952972
 H        -1.2009985310        8.6877090330       -0.5786769221
 H        -3.0684012521        6.3100233001       -2.8088260189
 H        -1.8136860138        7.6615433286       -2.7987842660
 H        -1.2391715603        6.0093395439       -2.7254683335
 H        -6.1506953605        8.5307993850       -0.1924915124
 H        -5.7219446283        8.0344708163        1.4117672541
 H        -4.4104667336       11.6797002050        3.8117348129
 H        -5.2501196431       11.3266698751        5.3746063100
 H        -3.8427002575       10.5048269691        5.0498311013
 H        -7.4836208809       11.7628337215        3.6471889520
 H        -7.6182767732       11.6327335501        1.8040450913
 H        -6.2738450158       12.3624130456        2.6324425257
 H        -8.2781098685        9.4812684454        1.8280846223
 H        -7.2243047279        8.1290282923        2.4481628168
 H        -8.0952224131        9.2539851783        3.5599566493
 Na       -1.4930720260       -1.0296808973       -0.3337793886
