155

 C         8.1775622003       -2.5511533759        1.0721774146
 C         7.7240416203       -1.7571371922       -0.2339529100
 C         8.6857105916       -1.9894549116       -1.4507592438
 C         7.7720437001       -2.2843448496       -2.8187959101
 C         6.4041861183       -1.6010379072       -3.0219181571
 C         9.4054578794       -0.6082277307       -1.6522500526
 C         9.7166836314       -3.1455559627       -1.2956631145
 O         6.8310430751       -0.9840035726       -0.1269258575
 O         8.3026025156       -2.9934948844       -3.6324899828
 C         5.6166755634       -2.2919960731       -4.2092579765
 C         4.5320401983       -3.3052941442       -3.6555134479
 C         3.6644504742       -3.9844724702       -4.7589947321
 C         2.2008046610       -3.4491566780       -4.4718776861
 C         1.3727417669       -3.8025406586       -3.1660878429
 O         4.3810042612       -3.5004329897       -2.4682204905
 O         1.5959178143       -2.6904812790       -5.2191274142
 C         3.9859142281       -3.5431952849       -6.2017151342
 C         3.9156091576       -5.4626874655       -4.6303597366
 C        -0.1044595469       -3.9019923893       -3.5119434178
 C        -1.0688049214       -2.9938606131       -2.6676908256
 C        -2.6310118061       -3.2472430915       -2.8627174577
 C        -3.0465822411       -3.8531821394       -1.4386816666
 C        -3.3668933042       -5.4133029062       -1.3156014666
 C        -3.3928937348       -1.8940898081       -2.9961203497
 C        -2.8915706021       -4.1292007514       -4.1575611504
 O        -0.6797206334       -2.2243499213       -1.8079494727
 O        -2.9689135561       -3.1732562674       -0.4516920597
 C        -3.1963687628       -5.8258549194        0.0926090258
 C        -1.6722531871       -5.9327655838        0.5394074231
 C        -1.4039376579       -6.6419016979        1.8800028928
 C        -0.6446975241       -5.7382204652        2.7626614423
 C         0.8886200064       -5.5597176215        2.4898556770
 O        -0.7455333807       -5.6970207402       -0.2556222123
 O        -1.2243316961       -5.1063611296        3.6169175904
 C        -2.7397905327       -7.1285965014        2.5129079341
 C        -0.5696685802       -7.8737646061        1.5132169543
 C         1.4249074424       -4.1876196804        2.9344624737
 C         0.8106239657       -3.0209670869        2.0639490330
 C         1.5514225956       -1.6522875082        1.8879791670
 C         0.4625881204       -0.5385815126        2.1559720586
 C        -0.2983300272       -0.5550442167        3.4816387043
 C         2.6804154920       -1.5391726216        2.9200355945
 C         2.1950833803       -1.5213502691        0.4246084820
 O        -0.1720667236       -3.2580189070        1.3728194083
 O         0.3711924405        0.3249037287        1.3475786100
 C        -1.4229146342        0.4633715451        3.3425934628
 C        -2.6310500564        0.0265471306        2.4572815977
 C        -3.6437211699        1.1602760252        1.8504184233
 C        -3.1235824266        1.6574425458        0.5406792009
 C        -3.4701590930        3.1511139966        0.0398032672
 O        -2.6813378617       -1.1945978403        2.1549933930
 O        -2.3859473796        1.0383936623       -0.2192058177
 C        -5.0387420903        0.3578502549        1.5354689783
 C        -3.9166128793        2.3596162016        2.8844886622
 C        -2.5112340006        3.7130354745       -1.1189158090
 C        -2.0106238036        5.0394378543       -0.6361684263
 C        -2.2124040991        6.4504445952       -1.4869942258
 C        -3.4698456935        7.0716924119       -0.7408174026
 C        -3.3847902955        8.3382319275        0.0715593015
 C        -1.0213157947        7.3534441011       -1.3349631885
 C        -2.6747546758        6.2334121404       -2.9189316149
 O        -1.3172041203        5.1613838424        0.3270647886
 O        -4.4649166462        6.3462330062       -0.7336946779
 C        -4.2246219817        8.4267874359        1.3963554044
 C        -4.8632421343        9.8526196050        1.5536002805
 C        -5.8094721299       10.0948633144        2.7605853200
 C        -5.2709883609        9.6259817042        4.0513975915
 C        -4.4387235262       10.5746593681        4.9749070819
 O        -4.7646366209       10.6991789466        0.6855622251
 O        -5.4851168112        8.4880404137        4.4960046144
 C        -6.1745061987       11.7103507440        2.8470315182
 C        -7.2264077515        9.3823849648        2.5628395079
 H         7.4769155768       -2.4683315455        1.8927060453
 H         8.0798172574       -3.6136202879        0.8067182604
 H         9.1859166980       -2.2893546366        1.3695660998
 H         5.9177825242       -1.8364362007       -2.0236049243
 H         6.4491647868       -0.5242853187       -3.1857135908
 H         8.8363033670        0.2878641594       -1.7922656533
 H        10.2659305991       -0.6471425180       -2.3900577491
 H        10.0676626260       -0.5590833649       -0.7037153977
 H         9.2448828659       -4.0543742131       -1.4439684556
 H        10.5749672974       -2.9901354234       -1.9649338592
 H        10.2527095730       -3.0843332205       -0.3297648349
 H         5.0444091935       -1.6221317622       -4.8721544809
 H         6.2510652380       -2.9303649995       -4.8471353401
 H         1.8029766136       -4.6539126188       -2.7323607651
 H         1.5996009618       -3.0197928916       -2.3696691284
 H         3.9196905031       -2.4431616052       -6.2786486589
 H         3.3222512881       -3.8788105940       -6.9360771665
 H         4.9888526746       -3.8185586614       -6.4950513059
 H         3.3629376196       -5.9902550052       -3.7943837549
 H         3.5640260024       -5.9444577615       -5.5089331974
 H         5.0077821048       -5.6136430523       -4.5353052594
 H        -0.5533804425       -4.9343736163       -3.5279601190
 H        -0.1353078135       -3.4984817221       -4.5818523498
 H        -4.3716548910       -5.4629286545       -1.6842004942
 H        -2.6689329164       -5.8652055270       -2.0062693075
 H        -3.4168600452       -1.8048927073       -4.0453634723
 H        -2.9242996107       -0.9564965691       -2.5884479612
 H        -4.4710427017       -1.8939193317       -2.7319079170
 H        -2.5831496570       -3.5009796165       -4.9863697626
 H        -2.3279231499       -5.0314615744       -4.0919964541
 H        -3.9614620809       -4.3657320116       -4.2209676633
 H        -3.7693123544       -5.2024957436        0.7185259065
 H        -3.5735309965       -6.8127643199        0.1754452958
 H         1.2683065946       -6.3843401774        3.0504851993
 H         1.2637468995       -5.8033245361        1.4621531850
 H        -3.5010689700       -6.3143757765        2.4395093898
 H        -2.5802441086       -7.4335178115        3.5568944758
 H        -3.0973851191       -7.9391495207        1.8590666463
 H         0.3241265016       -7.4317914028        0.9826806692
 H        -0.1364865735       -8.4779889000        2.3174389649
 H        -1.2730304743       -8.4828945435        0.9093744175
 H         2.5009874929       -4.2984407818        2.8261667153
 H         1.2602295843       -4.1047544657        4.0106477063
 H        -0.6189652658       -1.6025873366        3.5522719907
 H         0.3556011907       -0.3096689451        4.2332020701
 H         2.3885059657       -2.0007497064        3.8606138562
 H         2.9286442314       -0.4811853236        3.0650816506
 H         3.4648903674       -2.1152416255        2.5850765634
 H         1.4253205312       -1.6579867797       -0.3406166046
 H         2.5078877927       -0.4449995875        0.3601759435
 H         3.0767589026       -2.0794088584        0.3144191274
 H        -1.8055970230        0.7902352678        4.3064565060
 H        -1.1043682468        1.3770962423        2.8506757473
 H        -4.5988923173        3.1354656166       -0.3248602719
 H        -3.2599217893        3.6879710815        0.8604599984
 H        -5.5982915259        0.9279553015        0.7984221473
 H        -5.5774920820        0.2584596368        2.4804462622
 H        -4.6940413974       -0.5188771952        0.9927051647
 H        -4.2306746652        1.9266195487        3.7923727810
 H        -2.9875611807        2.8529758302        2.9724098311
 H        -4.5717458618        2.9997097370        2.4942750354
 H        -3.1494846983        3.8909807297       -1.9437378122
 H        -1.7139479980        2.9919312334       -1.4025600064
 H        -2.4459430127        8.4207869933        0.3959470843
 H        -3.6789775777        9.1027282451       -0.6714833352
 H        -0.2574161558        7.0380009191       -2.0618190697
 H        -0.5151217161        7.2836328879       -0.4522731788
 H        -1.2363037510        8.3855999879       -1.4834367084
 H        -3.7825111792        5.8940086138       -2.9723295313
 H        -2.4392866782        7.0655426430       -3.5649133059
 H        -2.1829557834        5.3429155912       -3.3323382369
 H        -5.0379242827        7.7060287972        1.3204809118
 H        -3.5987794927        8.0503642001        2.2605061564
 H        -3.5285061449       11.0939811689        4.5427275389
 H        -5.0457735954       11.2652102727        5.5956441159
 H        -4.0463668821        9.9628844997        5.7687089575
 H        -6.8651765144       11.9027795639        3.6544016128
 H        -6.6917881992       11.9836069140        1.9593046377
 H        -5.2478760246       12.2866232689        2.8835393760
 H        -7.7611834831        9.9700833007        1.7337802407
 H        -7.1384407708        8.3425545551        2.1930384387
 H        -7.7513444469        9.3955771704        3.4579090403
 Na       -1.3650000260       -1.2081154993       -0.0095302042
