155

 C         9.9478293319       -3.4971430637       -1.9775809160
 C         9.0079702956       -2.4386720191       -1.4882104394
 C         8.2878193773       -1.4717118179       -2.5473766259
 C         7.3346118730       -2.4561761192       -3.2722968440
 C         5.8113207340       -2.4669351365       -2.8316678556
 C         7.6917135391       -0.2434087559       -1.8350533021
 C         9.3963316882       -0.9669911842       -3.4851521790
 O         8.7978645508       -2.2123200388       -0.3190809594
 O         7.8294535950       -3.2197769256       -4.1226976072
 C         4.8924827045       -2.7668115986       -4.0273234463
 C         3.4546266674       -3.0830339410       -3.7404621906
 C         2.4968925963       -3.1848147327       -5.0809529475
 C         0.9143108609       -3.0270365029       -4.9539656370
 C         0.3301660155       -2.8705997027       -3.5064295755
 O         3.0019395444       -3.2877788490       -2.5892309010
 O         0.2555982911       -3.1750159148       -5.9237341612
 C         3.1233092826       -2.2944179965       -6.2261659886
 C         2.7219310312       -4.6926940875       -5.4595084146
 C        -1.1457858015       -3.3627346982       -3.4703800969
 C        -1.9763009478       -2.7476120160       -2.3405222306
 C        -3.4875999649       -3.2392053124       -2.1594123887
 C        -3.6978690318       -3.7914676251       -0.7233676831
 C        -3.8599017301       -5.2795334913       -0.2999713292
 C        -4.3452157042       -2.0261042650       -2.3013636957
 C        -3.9919551621       -4.3857070783       -3.1509386427
 O        -1.5574354589       -1.8631964516       -1.6008426185
 O        -3.7338048077       -2.9909229000        0.1982940413
 C        -3.2606905094       -5.6652555079        1.0231884830
 C        -1.7766270468       -6.0325190967        0.7916740535
 C        -0.8550722668       -6.5088629136        1.9787643441
 C         0.0741641941       -5.2029899498        2.3827155532
 C         1.3282231467       -4.9110666780        1.5070179175
 O        -1.2839458723       -5.7641076726       -0.3284191730
 O        -0.1226572993       -4.6156598845        3.4151793651
 C        -1.6324812046       -6.8851515310        3.2540236324
 C        -0.0103587575       -7.6814309786        1.3755467166
 C         1.9978290672       -3.6793129342        2.1009517067
 C         1.1036145935       -2.4188462558        2.0872287070
 C         1.6482070142       -1.0559453688        2.9001419661
 C         0.4487239572       -0.0768322399        2.9917354740
 C        -0.2525274470        0.1525335450        4.3187423965
 C         2.3716061656       -1.5102220830        4.1805105940
 C         2.5990386168       -0.4324340164        1.9284830646
 O         0.0383843069       -2.4552529934        1.5216179918
 O        -0.0164874657        0.3755499660        1.9750988642
 C        -1.4135587186        1.0390022909        4.0062285035
 C        -2.4959562320        0.4374219021        3.1821089235
 C        -3.5384335951        1.2672802540        2.3459876735
 C        -2.8063398497        1.6006826755        0.9111291118
 C        -2.6640327446        3.1413497391        0.3879903233
 O        -2.5461517784       -0.7855516949        3.1257458498
 O        -2.3824699849        0.7624024544        0.1132202076
 C        -4.7544394116        0.4199669054        2.1258793078
 C        -3.7829252665        2.6407871935        3.0460665868
 C        -2.6995862614        3.2875016600       -1.1034988890
 C        -2.0264655753        4.6131805067       -1.5255107834
 C        -2.9445795577        5.6738883888       -2.3603165657
 C        -3.7966419694        6.3809456765       -1.1770771206
 C        -3.1638703531        7.3997123453       -0.2795382218
 C        -2.0794378632        6.7292198254       -3.1313917792
 C        -4.0513973668        4.9780305417       -3.2335876466
 O        -0.8859370685        4.9137704971       -1.2458830811
 O        -4.7313889865        5.7228917397       -0.7505592532
 C        -4.0458953157        7.7561620931        0.9112848779
 C        -3.3236174354        8.8016397072        1.9003614043
 C        -4.1610813973        9.7572129036        2.7642270378
 C        -3.8416477875        9.1153022174        4.1198466933
 C        -2.8816087588        9.7501438155        5.0585740890
 O        -2.1005541208        8.8585095986        1.8384069677
 O        -4.2787946276        7.9919807526        4.3413331229
 C        -3.6407635234       11.2447353623        2.7271386289
 C        -5.7016033699        9.7707436793        2.4766130485
 H        10.1156061245       -4.3850491373       -1.2849895861
 H         9.5321191039       -3.8984328942       -2.8969333757
 H        10.8829850412       -3.0174830738       -2.1287619654
 H         5.8026760751       -3.2623000692       -2.0669414930
 H         5.5867719774       -1.4726063870       -2.3846873208
 H         6.8121575659       -0.4719449084       -1.1293314959
 H         7.6038061377        0.4868671362       -2.6331378933
 H         8.5794830683        0.0134226290       -1.3315485489
 H         9.7346863895       -1.7080342215       -4.1540596442
 H         8.8354499837       -0.2617102698       -4.1102714595
 H        10.2385378145       -0.4027787177       -3.0119981680
 H         4.8308294713       -1.8430480053       -4.5861536511
 H         5.2517942719       -3.5234630353       -4.7487873751
 H         1.0372902213       -3.4007906564       -2.8810787776
 H         0.3546866285       -1.8164985342       -3.2356231885
 H         3.1730426286       -1.2207690465       -5.8869618602
 H         2.5710783233       -2.4595353962       -7.1195530124
 H         4.1549446803       -2.6594104701       -6.4479114693
 H         2.4669101510       -5.3683821405       -4.6198512801
 H         2.1751867824       -4.9183297769       -6.3128659530
 H         3.7744683468       -4.8542819096       -5.6467386761
 H        -1.1822396412       -4.4364134376       -3.5157119624
 H        -1.5145646860       -3.0551936521       -4.4302822723
 H        -4.9577945508       -5.4733998592       -0.3221869471
 H        -3.5020753307       -5.9664790691       -1.0606810698
 H        -3.9875221905       -1.5755187102       -3.1969295142
 H        -4.3024615069       -1.3357468728       -1.4598987684
 H        -5.3818649830       -2.2796936434       -2.5600798957
 H        -3.8123478161       -4.0651144715       -4.2120215247
 H        -3.5830874743       -5.3872680700       -3.0267824645
 H        -5.0570823739       -4.5487738925       -3.0310365724
 H        -3.3759387261       -4.9687742100        1.9003964135
 H        -3.6615613531       -6.7066112392        1.3385330292
 H         2.0357774651       -5.7697444372        1.4641637292
 H         1.0615728308       -4.7257277675        0.4673333120
 H        -2.0541447265       -5.9279056969        3.5997117728
 H        -0.8523066208       -7.2632154640        3.8582917681
 H        -2.3603143110       -7.6250603406        2.9760812443
 H         0.5204482847       -7.3418374753        0.5748334561
 H         0.7795449259       -8.1048680904        2.0627174860
 H        -0.6159529398       -8.4953001524        1.1577881563
 H         2.9750472132       -3.5352509205        1.6225170846
 H         2.3692656339       -3.8275443891        3.1459588131
 H        -0.5514270230       -0.8248060684        4.7224801599
 H         0.3529575518        0.5462334182        5.1563549623
 H         1.8072141739       -2.3142813224        4.7037051948
 H         2.5795481002       -0.7504301239        4.9992014777
 H         3.3046781112       -1.9322276744        3.8726262962
 H         1.9525088077       -0.1367013366        1.1084962285
 H         3.1879854789        0.4483793658        2.1959394596
 H         3.2951230751       -1.1337164416        1.5942187047
 H        -1.8931961516        1.4876465120        4.9475664635
 H        -1.0886445021        1.9686408088        3.4825587418
 H        -3.3625766459        3.7595342964        1.0280681954
 H        -1.7542833781        3.4261755296        0.8244793603
 H        -4.5242033742       -0.6038266860        2.1451649573
 H        -5.2686074100        0.5239105375        1.1737245459
 H        -5.4076097470        0.6385897820        2.9410291538
 H        -3.9542762906        2.5016937679        4.1185978543
 H        -3.0954461488        3.4861679300        2.9052887611
 H        -4.7729070339        3.2186732258        2.8047398644
 H        -3.6955079366        3.1394672330       -1.3975488362
 H        -2.2104875511        2.4246328847       -1.5637347623
 H        -2.2160012103        6.9069031068        0.0230400587
 H        -2.7649390861        8.3044276799       -0.7891149492
 H        -1.4417927958        6.1459740628       -3.8241569074
 H        -1.4641207854        7.2304188319       -2.3873130575
 H        -2.7386629925        7.5007847209       -3.5361402568
 H        -4.6983445086        4.3080550728       -2.5858697668
 H        -4.7398209872        5.7138348354       -3.5270755403
 H        -3.7461900965        4.3499220718       -4.0205247151
 H        -5.1236740285        8.0475794461        0.5801822497
 H        -4.1518878520        6.8904321537        1.5332422442
 H        -2.0105976133        9.8883381598        4.4002189689
 H        -3.2182985551       10.6190239471        5.5919433203
 H        -2.6075626859        9.1242668414        5.8672438785
 H        -3.8776169981       11.8244361828        3.6393772653
 H        -4.0040076868       11.8884510683        1.9325562761
 H        -2.5818893322       11.0414332435        2.6523070696
 H        -6.1209541591        9.6836525823        1.4485291419
 H        -6.0386214789        8.8342658561        2.8833749010
 H        -6.2363223685       10.4478730553        3.0490047748
 Na       -2.0973196774       -1.3624923239        0.7334425794
