155

 C         9.8918252105       -3.5123514037       -2.3689192418
 C         9.1350183737       -2.4245199420       -1.6194209671
 C         8.3268527111       -1.4747523120       -2.5382022775
 C         7.2740294728       -2.4106305367       -3.3067774599
 C         5.7712991685       -2.5487657574       -2.7820511658
 C         7.5373642350       -0.4167272134       -1.7422315014
 C         9.2321920337       -0.7584216759       -3.6129326271
 O         9.0299067469       -2.3459844260       -0.4217362451
 O         7.6090733519       -3.0106536336       -4.2846908666
 C         4.9513647755       -2.8427844099       -4.0384912679
 C         3.3539452672       -3.0741348649       -3.8491073093
 C         2.4631688820       -3.2775229642       -5.1011712647
 C         0.9555979225       -3.1382101331       -4.8089278231
 C         0.1499981489       -2.6388101472       -3.4931443525
 O         2.9936383146       -3.0442200008       -2.7121149562
 O         0.2072631182       -3.2625917328       -5.7845391296
 C         2.7354647408       -2.1990396270       -6.2533785485
 C         2.7083331539       -4.6874398931       -5.5550236389
 C        -1.3090304990       -3.1176576521       -3.4879515762
 C        -2.0840123057       -2.8360562506       -2.2203294189
 C        -3.6232883759       -3.3225326760       -2.0685406102
 C        -3.7992630255       -3.7866011265       -0.5065279465
 C        -3.9082270574       -5.2512696946       -0.1507689124
 C        -4.6233555637       -2.1928947572       -2.2710369593
 C        -3.8870169592       -4.4060081360       -3.0590267200
 O        -1.6038542260       -2.1866184437       -1.3092505501
 O        -3.6854511030       -3.0257178148        0.4155013378
 C        -3.2251043444       -5.6182938329        1.1472368202
 C        -1.6761739746       -5.7648188358        0.9646772092
 C        -0.8380840052       -6.5492613605        1.9523335247
 C         0.1763810244       -5.3826845359        2.3282237274
 C         1.3975958626       -4.9759008960        1.4633803485
 O        -1.0901488241       -5.4145541091       -0.0378138455
 O        -0.1076511288       -4.6774292576        3.3021110632
 C        -1.4477897934       -7.0361714246        3.3093666432
 C        -0.3097656692       -7.7821512373        1.2533390645
 C         2.1724078320       -3.6444245168        1.8955936644
 C         1.1898580461       -2.3946341316        1.9414334712
 C         1.5994165125       -1.1744610983        2.8284924474
 C         0.4094908054       -0.2204026011        2.9661753623
 C        -0.3467181381       -0.0409660953        4.2915456699
 C         2.1824018781       -1.4900893317        4.1779250148
 C         2.7055193153       -0.3990531406        1.9778030632
 O         0.1687002544       -2.3784730003        1.2742727618
 O         0.0526248342        0.4595598015        1.9941037532
 C        -1.4493340396        1.0377410226        4.1918328977
 C        -2.5507765761        0.6064964902        3.2071143380
 C        -3.5178718157        1.4995617605        2.4091002768
 C        -2.8557089003        1.7587693044        0.8320857432
 C        -2.6782662840        3.1340312629        0.3236019988
 O        -2.5995262567       -0.5992689560        3.0527890760
 O        -2.5967257122        0.7524820695        0.1931412791
 C        -4.8620449889        0.6794636915        2.1443103817
 C        -3.7727238604        2.8093811443        3.1945470806
 C        -2.6381480303        3.2466509260       -1.2025108955
 C        -2.0655831038        4.6142150851       -1.6831335120
 C        -3.0340021366        5.6165561366       -2.4191664740
 C        -3.7863431346        6.1450931161       -1.1009435931
 C        -3.1629721443        7.3920831302       -0.3484291084
 C        -2.1745449798        6.7464666245       -3.1004543821
 C        -3.9919591405        5.0819610428       -3.4858620763
 O        -0.9568198013        5.0034987152       -1.3582304544
 O        -4.7082808760        5.5375030426       -0.5331079457
 C        -4.0950661231        8.0220680474        0.7643613348
 C        -3.2805879974        8.7397648881        1.7687440444
 C        -3.9704140829        9.6822452198        2.8082171166
 C        -3.7102524615        8.9824274309        4.1833188878
 C        -2.5787307749        9.5544211908        5.0712720856
 O        -2.0779456505        8.6967812950        1.7548673846
 O        -4.2140222726        7.9068009617        4.3954994631
 C        -3.2762940224       11.0898021403        2.6067238099
 C        -5.4710689525        9.8443527749        2.6107224008
 H        10.0158074999       -4.2590359493       -1.6450616783
 H         9.2991893566       -4.0609336612       -3.0931968582
 H        10.9120468498       -3.1570436825       -2.7130217457
 H         5.8069379809       -3.3429675272       -2.0290133515
 H         5.3917821495       -1.5714726505       -2.4873449761
 H         7.3396363039       -0.9623713614       -0.8814336108
 H         6.7239078355       -0.2096251192       -2.4337193511
 H         8.1817975073        0.5043015181       -1.5036878969
 H         9.9207890504       -1.4783892966       -4.1111887349
 H         8.7640307333       -0.1535759429       -4.4218839585
 H         9.8337032617       -0.1262122722       -2.9547153776
 H         5.1734504713       -2.0060166822       -4.7554933319
 H         5.3269299377       -3.6904671234       -4.6314009014
 H         0.7319640197       -2.8308333122       -2.5625478906
 H         0.1909687012       -1.5394981155       -3.5996367483
 H         2.8677724954       -1.2343779333       -5.8048395328
 H         1.8518392343       -2.3764903965       -6.9186668503
 H         3.5954938509       -2.4220094940       -6.8365213331
 H         2.0727819727       -5.3036104728       -4.9833797559
 H         2.4951447602       -4.7402517381       -6.6514161491
 H         3.7090726528       -5.0305478477       -5.3656661274
 H        -1.2530251423       -4.2129903135       -3.6716945870
 H        -1.7379369476       -2.7680077804       -4.4734306038
 H        -4.9807435626       -5.4964545407       -0.1627627390
 H        -3.5203062387       -5.8363783770       -1.0397326102
 H        -4.6977603809       -1.7756436351       -3.2716956960
 H        -4.2958217119       -1.4292134751       -1.5533474963
 H        -5.6105987388       -2.5086101074       -2.0152007370
 H        -3.9301699553       -3.9217956972       -4.0260088864
 H        -3.0987837830       -5.1749723969       -3.1809920885
 H        -4.7931048673       -5.0062911747       -2.9118029678
 H        -3.4756297331       -4.8436007637        1.8122382993
 H        -3.4514912564       -6.5202812723        1.5657909165
 H         2.0873513284       -5.8063072401        1.5976382120
 H         1.1590673003       -5.0405348336        0.3947128647
 H        -2.2697810857       -6.4321247422        3.4578742403
 H        -0.6228604232       -6.9688618619        4.0166221039
 H        -1.7692943524       -8.0422237925        3.1071489081
 H         0.3669467051       -7.5526428257        0.3525086670
 H         0.3187249455       -8.3409807695        1.8594320759
 H        -1.1763917923       -8.4549349936        1.0021764805
 H         3.0757758466       -3.4649645532        1.2712598877
 H         2.6491359412       -3.8273017533        2.8496755220
 H        -0.5707267443       -0.8789832987        4.9297327587
 H         0.4689448092        0.4226950792        4.8682587695
 H         1.4027055551       -1.8464379192        4.8144145972
 H         2.5150735914       -0.5997974624        4.6680410150
 H         3.1280895822       -2.1275680705        4.1735431788
 H         2.6211623580       -0.2105199376        0.9035505989
 H         2.7471621497        0.5974015724        2.3628728018
 H         3.7039889212       -0.8511322642        2.2518016584
 H        -1.8419636223        1.3608370372        5.1061064562
 H        -0.9789218475        1.9433148987        3.8184079482
 H        -3.5183658620        3.6391004579        0.8370529689
 H        -1.7354769412        3.4817277706        0.8984523972
 H        -5.0370559796        0.3453132920        1.0818169775
 H        -5.7067103944        1.3333330986        2.2378895557
 H        -4.9861115870       -0.1274370556        2.8924988959
 H        -4.4203309556        2.6168944129        4.0261465770
 H        -2.9633912798        3.3791544616        3.5658012041
 H        -4.3302668703        3.4629878514        2.6683271651
 H        -3.7660801462        3.0095214327       -1.4455684695
 H        -2.1661796082        2.4046638118       -1.6850274880
 H        -2.3090419687        6.9935293505        0.2075529057
 H        -2.7455338866        8.1643289371       -0.9699243770
 H        -1.7014976086        6.3114286437       -3.9793842582
 H        -1.5088133236        7.1520617273       -2.3658762259
 H        -2.8679366052        7.5609172050       -3.2867100740
 H        -4.9085312582        4.7090377427       -3.0633042391
 H        -4.3794224852        5.9072171664       -4.1169906274
 H        -3.5159793813        4.2547011401       -4.0429850944
 H        -4.7083452491        8.7669994841        0.4077871635
 H        -4.7093218480        7.2343998550        1.2617469007
 H        -1.6760196190        9.7672620068        4.5596481325
 H        -3.0108576884       10.4431275111        5.5682141425
 H        -2.3962909376        8.9421824056        5.9442904019
 H        -3.5564141225       11.7722431485        3.3988992872
 H        -3.7823771402       11.5179922693        1.7293159372
 H        -2.1740680098       11.0229004964        2.4463570808
 H        -5.6680518447       10.1763245900        1.6161532159
 H        -6.1759242122        8.9647411750        2.6689806991
 H        -5.9110098589       10.5980233650        3.3179148212
 Na       -1.8079754371       -1.5197637209        0.9846739192
