155

 C         8.7664816747       -2.4465471658       -5.4903477356
 C         8.2474564107       -2.9178164645       -4.1792743722
 C         7.2644940448       -1.9360565016       -3.4204689006
 C         5.9347544551       -1.6527017163       -4.2370887573
 C         4.4928104980       -2.2445362077       -3.8245679533
 C         7.0558953462       -2.4280284012       -1.9788447645
 C         7.8944239594       -0.5630143029       -3.3266918996
 O         8.5450011078       -3.9833078245       -3.6501724256
 O         6.0527304728       -0.9250426246       -5.1988686212
 C         3.6053327092       -2.4405062434       -5.0761868538
 C         2.1521725710       -2.0782685644       -4.7136164262
 C         0.8252025041       -2.9673428927       -5.2279512572
 C         0.3870809102       -3.4719565947       -3.7285721970
 C        -0.7179066960       -2.6504738093       -3.0487096393
 O         1.8735596183       -1.2614916273       -3.8804506509
 O         0.7845148092       -4.4887131561       -3.2182009972
 C        -0.2262029563       -2.0337383656       -5.9063749786
 C         1.1743773460       -4.1731204595       -6.0370270634
 C        -1.8342133182       -3.4808885813       -2.2715880030
 C        -2.6139346923       -2.8511767651       -1.1762593445
 C        -3.8725923667       -3.6988386454       -0.3892329881
 C        -3.2519275669       -4.2581919996        0.9316419032
 C        -3.4737025654       -5.7267134817        1.3504810196
 C        -4.8745476625       -2.5652795008        0.1241792318
 C        -4.6002582713       -4.6897458812       -1.2419059428
 O        -2.4141523473       -1.7053327386       -0.8367741168
 O        -2.7355090047       -3.5271191475        1.7685918703
 C        -2.2769737098       -6.3411427072        2.0962548363
 C        -1.1203899809       -6.2983362189        1.2078145887
 C         0.2883233581       -6.8738450571        1.7199234946
 C         0.9695121647       -5.4882834757        2.0900354299
 C         1.7666451197       -4.6940415306        1.1432012962
 O        -1.2620859605       -5.9652450449        0.0923493321
 O         0.5647217129       -5.0648590392        3.1866445969
 C         0.1101940851       -7.6838495525        2.9979234696
 C         0.7265369218       -7.6621043790        0.4772798839
 C         2.2433179227       -3.3794759127        1.8021164485
 C         1.0554961186       -2.4261846933        2.1783907708
 C         1.3417600792       -1.3648047214        3.3914531419
 C         0.4282183589       -0.1382350522        3.1109991451
 C         0.0271512063        0.7519363075        4.3518467678
 C         1.1329131449       -2.1012461643        4.8028810767
 C         2.8073887262       -0.7696124421        3.2953102295
 O        -0.0109622556       -2.5034326109        1.6001577805
 O         0.2000820227        0.2443140040        1.9719199688
 C        -0.7839416227        1.9212950410        3.6587795341
 C        -2.0691891415        1.4204772122        3.2316898515
 C        -3.0320107840        2.5273322790        2.5804776836
 C        -2.7390109849        2.3125219176        1.0655080221
 C        -2.6991346783        3.5723025714        0.1848972117
 O        -2.4008236322        0.1922883458        3.2837931856
 O        -2.3716242937        1.2600033631        0.5597661455
 C        -4.4595059880        2.1694064436        2.8516836683
 C        -2.7388439523        3.9550398292        3.0083714927
 C        -2.9691792708        3.4587108989       -1.3110530598
 C        -2.7701926539        4.7654545342       -2.0234817233
 C        -3.7828853034        5.6734685865       -2.5292305377
 C        -3.9084759851        6.8823627168       -1.4170701027
 C        -2.6444275989        7.4316014092       -0.7308033633
 C        -3.3479806895        6.3064793029       -3.8424447905
 C        -5.1935256590        5.0430531707       -2.7918949248
 O        -1.5779127262        4.9625164743       -2.2566106434
 O        -5.0192445312        7.3110711380       -1.1669177801
 C        -2.9633160243        8.3087687916        0.5513343446
 C        -1.7022395437        8.4994840124        1.3984931994
 C        -1.7444475704        8.8764061133        2.8434980769
 C        -1.7572021859        7.5192694603        3.6988825057
 C        -0.8165233086        7.2349297621        4.8422758002
 O        -0.6788095970        8.6712390013        0.7775175362
 O        -2.4360852053        6.5944832306        3.2808848448
 C        -0.5513883813        9.8015893488        3.1047312827
 C        -3.0952604802        9.5721605908        3.2706079658
 H         8.7490024072       -3.3633600721       -6.0679081596
 H         8.0810577958       -1.7047431192       -6.0237832073
 H         9.7399502348       -2.0841995518       -5.3369114057
 H         4.6333549527       -3.2345574927       -3.3908227876
 H         4.0203644576       -1.4703746365       -3.1715709868
 H         7.9543703884       -2.8500211046       -1.5764429657
 H         6.3121596252       -3.2731725378       -1.7907904885
 H         6.5956864372       -1.6107991268       -1.2349368592
 H         8.0945730519        0.0167484549       -4.2245024038
 H         7.2381454284        0.1309483114       -2.8062160357
 H         8.8110556478       -0.5334120912       -2.7784859717
 H         4.0336605909       -1.8065126771       -5.8664314056
 H         3.6107119619       -3.4668279290       -5.5383723486
 H        -0.2911302363       -1.9205725358       -2.3100548156
 H        -1.1964537068       -1.9750411588       -3.7106478384
 H        -0.3717327758       -1.1228385849       -5.4151183928
 H        -1.1857699852       -2.4492370579       -5.7836916672
 H        -0.0958062384       -1.9544164459       -7.0176480152
 H         1.2631754620       -5.0028342950       -5.3445700001
 H         0.3237621820       -4.5805030328       -6.6031381216
 H         2.0531079555       -4.0788364338       -6.7252451559
 H        -1.2642660303       -4.2787361591       -1.7866860776
 H        -2.4956409815       -4.0117074797       -3.0079625499
 H        -4.3363434506       -5.5926161118        2.0173981539
 H        -3.7627518412       -6.4734395726        0.6341762023
 H        -5.0856859024       -1.8486261287       -0.7121045352
 H        -4.3861729406       -1.9355330802        0.8564409279
 H        -5.7709051279       -2.9962626616        0.5699857899
 H        -5.0625780363       -4.1069883122       -2.0144268356
 H        -3.8893750834       -5.4061710134       -1.5817742078
 H        -5.3184027294       -5.2321637703       -0.5623881411
 H        -2.0879536501       -5.7573606092        2.9315281865
 H        -2.5544606967       -7.2790388299        2.4929162292
 H         2.6444807336       -5.3464857919        0.8629534307
 H         1.1515459932       -4.5797849081        0.2868498602
 H        -0.1766261483       -7.1236676311        3.9050120021
 H         1.0776608690       -8.0964159585        3.2683807271
 H        -0.4551708321       -8.5893845410        2.8924176010
 H         0.6422064734       -7.0992021629       -0.4995842561
 H         1.6290256393       -8.1246584967        0.4990063838
 H         0.0729460621       -8.5140706394        0.2888418472
 H         3.0061589094       -2.8645024831        1.2342702936
 H         2.8051546928       -3.5542823026        2.7265047204
 H        -0.6308815154        0.2942904015        5.0216052540
 H         0.9835783123        0.9928356374        4.9357131020
 H         0.0725147875       -2.3755494633        4.9553152261
 H         1.3001524354       -1.3358437751        5.5561760767
 H         1.6491673302       -3.0614509965        4.8186601539
 H         3.0715354581       -0.4642267716        2.3305428676
 H         2.9168621812        0.0017269219        4.1099864532
 H         3.5184191019       -1.4995596726        3.6308418152
 H        -0.9902647491        2.5243355243        4.5455864412
 H        -0.2217976964        2.5254824794        3.0363864456
 H        -3.5327869028        4.2568286344        0.6752227034
 H        -1.9039359578        4.2015070414        0.4269970843
 H        -4.5664240697        1.1333368506        3.1640379045
 H        -5.1242107897        2.2246859357        1.9793812250
 H        -4.9716837996        2.8240694260        3.5850065645
 H        -2.6989203407        3.9302119020        4.0630872986
 H        -1.9395371922        4.3167372617        2.5423320076
 H        -3.6393292721        4.5611871472        2.7148346363
 H        -4.0030899220        3.2199172697       -1.2791310928
 H        -2.4220487706        2.5737130006       -1.7231833177
 H        -1.9395018530        6.6554938058       -0.4916018924
 H        -2.1607437161        8.0403142514       -1.4489407135
 H        -3.3370944449        5.7114150735       -4.7130779885
 H        -2.2484370430        6.5550427155       -3.7736892033
 H        -3.8862839064        7.2721174196       -3.9427965462
 H        -5.5088093564        4.4453387142       -2.0313822265
 H        -5.8933973259        5.8888815754       -2.9469757601
 H        -5.3082219116        4.5652279790       -3.7651301396
 H        -3.4845701027        9.2744232478        0.1293175281
 H        -3.6721327118        7.8659719473        1.1312303092
 H         0.2485220024        7.0228464144        4.5857785388
 H        -1.0158848355        8.0707215328        5.4479963929
 H        -1.2481056947        6.3659675205        5.3743374271
 H        -0.4274965875       10.0616447931        4.1677866757
 H        -0.5904860259       10.6959191010        2.4633146250
 H         0.3406733095        9.3009015141        2.9159786113
 H        -3.2398731533       10.4486771732        2.6707108155
 H        -3.8927215885        8.8354633383        3.2739836930
 H        -3.0024436115        9.9612605010        4.3632020717
 Na       -1.9531721552       -1.1306764868        1.3185870867
