155

 C         5.9952445021        1.5862335869        7.9602063865
 C         6.4455135366        0.5550568943        7.0460928534
 C         6.2745157427       -0.9905471397        7.3918069846
 C         4.7981027222       -1.4486644846        7.0389115808
 C         4.0330846235       -0.7204509551        5.9564448447
 C         7.2205652167       -1.6906855639        6.4559408498
 C         6.5600841069       -1.4415424686        8.9101492771
 O         7.0242968844        0.9263364336        6.0477046857
 O         4.3385284735       -2.3111691738        7.7146060762
 C         2.9268716640       -1.6203659819        5.3020423725
 C         3.3974442875       -2.4322442977        4.0921772195
 C         2.8583031292       -3.9415031293        3.9384465109
 C         1.2654131408       -3.8214954354        3.8478194898
 C         0.3991607596       -3.8638192074        2.5497456954
 O         4.1922362884       -2.0239733024        3.2932361542
 O         0.6840864956       -3.6009397953        4.8750363629
 C         3.4081938090       -4.5694118474        2.6123601114
 C         3.2876728049       -4.7035254558        5.3026548749
 C        -1.0880460932       -3.4859823676        2.8087826024
 C        -1.2239028072       -2.0113325232        2.6076826340
 C        -1.9153671481       -0.9750660994        3.5450875917
 C        -1.2596044246        0.3944801554        3.2855560256
 C        -1.0805070361        1.3512269749        4.5744892527
 C        -3.2726688908       -0.8555911064        2.8962610088
 C        -2.0456701688       -1.4703159739        5.0743666976
 O        -0.8963613378       -1.7120687849        1.4901373373
 O        -1.2664830995        0.9127215892        2.1735120009
 C        -0.4599056173        2.7124901586        4.3125375428
 C         0.8707769064        2.3120192239        3.6020967619
 C         1.8728252082        3.4777744075        3.0540833862
 C         2.4370956192        3.1625818108        1.6544878947
 C         3.4787157262        2.0012818732        1.3747983291
 O         1.3454426092        1.1647238741        3.5874414839
 O         2.1060584487        3.8994116661        0.7885268462
 C         1.1897600029        4.8182353150        2.9654901131
 C         2.9733663629        3.6597136951        4.1180492356
 C         3.6446130203        1.8551857747       -0.0954974664
 C         2.3235534354        1.1679609383       -0.6794516128
 C         2.0940026376        0.8402196185       -2.1722772957
 C         0.6441515171        0.8934350696       -2.5898239129
 C        -0.0732184021        2.2758792240       -2.5860129893
 C         2.8755047379        1.8592291758       -3.0970186989
 C         2.6573442003       -0.5633312458       -2.3589984988
 O         1.4889606969        0.8327280114        0.1339130030
 O        -0.0002451591       -0.1043362588       -2.8664672729
 C        -1.4959392866        2.3701451225       -3.0737786817
 C        -2.5864683908        1.9919131084       -2.0909679959
 C        -4.0798796390        2.2474963664       -2.2547450256
 C        -4.7219847461        0.7112781263       -2.3269168903
 C        -4.8962532055       -0.0167114293       -3.6968014473
 O        -2.3646020781        1.4178670804       -1.0199820143
 O        -5.0930725540        0.2722815129       -1.2811521821
 C        -4.7467173177        2.7626732542       -0.9649147080
 C        -4.5137867908        3.1753607766       -3.4027242668
 C        -5.3538830643       -1.4700329384       -3.4838538094
 C        -5.4225673112       -2.2693090897       -4.7407008629
 C        -6.7087693313       -2.0715130246       -5.7896340620
 C        -6.3853143304       -0.6024711366       -6.4276859871
 C        -5.4398526917       -0.5843414418       -7.5789896408
 C        -6.8089139345       -3.3006535993       -6.7415553029
 C        -8.0404141411       -1.9359497908       -5.0167402347
 O        -4.5001004193       -3.0070505537       -5.0933045491
 O        -6.8216927297        0.3845599656       -5.9901963084
 C        -3.8890828425       -0.5130192676       -7.3217135924
 C        -3.0560279775       -0.2594491345       -8.5849879615
 C        -1.7159019270        0.6217691175       -8.4400966896
 C        -2.2593952468        1.9729210778       -7.8906464598
 C        -2.9950728949        3.0026115129       -8.7606773454
 O        -3.3672999086       -0.7493477899       -9.6524911081
 O        -2.0767063286        2.2870058411       -6.7400985571
 C        -0.7071635381       -0.0179455901       -7.5121868047
 C        -1.1709039810        0.8381828835       -9.9473954666
 H         5.0591703521        1.4611401363        8.5188537316
 H         6.7942424044        1.6349558255        8.6327531523
 H         6.0246314660        2.5740210125        7.5293985170
 H         3.5231369114        0.2448765496        6.4212191044
 H         4.6834188172       -0.3473728431        5.1892339224
 H         8.2113970439       -1.2974922273        6.7629182812
 H         6.8757074772       -1.4557181453        5.4228001156
 H         7.1681255155       -2.7867402818        6.5463659612
 H         5.9322510232       -0.9143704732        9.5219488857
 H         6.1840930145       -2.5267434466        8.9448492975
 H         7.6093434881       -1.3881159521        9.1808378087
 H         2.6158214876       -2.3825301839        6.0385192928
 H         2.0370548896       -1.1260426126        5.2178265856
 H         0.9515402651       -3.3819156427        1.7433921717
 H         0.3478205553       -4.8910132940        2.2748927780
 H         4.2989597015       -3.9485263457        2.2950431848
 H         2.6700457544       -4.5407132344        1.8379409252
 H         3.7912215446       -5.6058483566        2.7297871608
 H         3.8795871845       -5.5495822388        5.0864272677
 H         3.8891651280       -4.1225717646        6.0094298483
 H         2.4004074151       -5.0090100100        5.8160755074
 H        -1.3626265768       -3.9783360765        3.7589888159
 H        -1.7213850299       -3.9920438897        2.1482110407
 H        -1.9887904553        1.6251914612        5.0487258593
 H        -0.5411704212        0.8707772175        5.3127885385
 H        -3.8510201287       -0.1314451111        3.3419221671
 H        -3.8151961037       -1.8068593925        2.9900743011
 H        -3.0955114351       -0.4935914456        1.8708477287
 H        -2.6715343835       -2.3075183714        5.1303751524
 H        -1.1108600364       -1.8332596438        5.4152325184
 H        -2.3686507699       -0.6678218265        5.7016698631
 H        -1.0986173015        3.3419080928        3.6819472522
 H        -0.1447359908        3.0597567489        5.2931802319
 H         4.4715179981        2.3534061401        1.7115181008
 H         3.1697108600        1.0360043519        1.8168200514
 H         0.8856683263        5.0120720877        4.0042341983
 H         0.2868722423        4.8181115388        2.3744060135
 H         2.0082285899        5.5097106039        2.7861906443
 H         3.7959059509        4.3061671041        3.7344129580
 H         2.5689185110        4.1533996625        4.9651723519
 H         3.4504663113        2.7552990149        4.4517624025
 H         4.5408698688        1.2340643764       -0.2845418980
 H         3.7291802051        2.8370271066       -0.6310635063
 H         0.0816499893        2.7288057778       -1.5557967466
 H         0.5175398539        2.8507475706       -3.2584127302
 H         3.9265697260        1.9040207135       -2.8218791480
 H         2.4066226362        2.8578795484       -2.9562221621
 H         2.8248838906        1.6103808962       -4.1181048298
 H         3.6328564419       -0.7873824677       -1.8915408113
 H         2.0684548373       -1.3246766358       -1.8778196140
 H         2.7217857920       -0.8016891986       -3.3733107606
 H        -1.7426690856        3.4160495856       -3.4109091501
 H        -1.5333837815        1.7116650741       -3.9841578169
 H        -5.6671990754        0.4708797549       -4.3241476510
 H        -3.8727846237        0.0441748059       -4.0928807681
 H        -5.8350831743        2.7651535642       -0.8665746959
 H        -4.4353601822        3.7672189217       -0.8126685525
 H        -4.5712086655        2.2118612525        0.0011211335
 H        -3.9856803655        4.2437171873       -3.4757447601
 H        -4.5847667496        2.7371423794       -4.3732784696
 H        -5.5272053001        3.5605886474       -3.2372895475
 H        -6.3126379000       -1.5345499078       -2.9877414379
 H        -4.6616507515       -2.0205166057       -2.7319261583
 H        -5.5673078716       -1.4486365034       -8.3025009766
 H        -5.6609192125        0.3547839261       -8.1354437618
 H        -7.0460797407       -4.2609105513       -6.2712831066
 H        -5.8398296575       -3.5529968959       -7.2373129967
 H        -7.5237221716       -3.0702299025       -7.5829427664
 H        -8.3537747239       -2.8071638730       -4.5176642137
 H        -7.9530545075       -1.1109870549       -4.2801736751
 H        -8.8367279934       -1.7876586724       -5.7063004887
 H        -3.6337693770        0.3499468442       -6.7057761999
 H        -3.5299683929       -1.3870503614       -6.7975917168
 H        -2.2241710679        3.5894334179       -9.2098333191
 H        -3.6770988112        2.5689141648       -9.5024302227
 H        -3.5389491497        3.6757074488       -8.1427984713
 H        -0.2970649381       -0.8991861161       -7.9748739017
 H        -1.1619457458       -0.2580951240       -6.5659827224
 H         0.0509026305        0.7443508866       -7.3634921330
 H        -1.0935998015        1.8426249019      -10.3685775000
 H        -0.1302099746        0.3939995212      -10.0098133964
 H        -1.8692839805        0.4177524975      -10.7049094547
 Na       -0.8493526422        0.2046145542       -0.1000538902
