155

 C         7.4447677453       -3.0085863671       -6.7605823580
 C         6.3872416877       -2.9071803887       -5.7020894542
 C         6.5351759982       -1.6551272492       -4.7055776411
 C         5.0582945683       -1.0518448393       -4.9367780224
 C         3.8732668108       -1.6602246780       -4.2320914092
 C         6.7596575907       -2.2127081507       -3.2091999687
 C         7.6663125339       -0.7643701941       -5.1284903276
 O         5.5550377898       -3.7868103965       -5.4727543440
 O         5.1281544504       -0.1919063769       -5.8164794296
 C         2.5427723760       -1.8881563555       -5.1103776720
 C         1.2704416943       -2.1458795328       -4.2121324736
 C         0.2322498360       -3.2538398514       -4.6720832376
 C        -0.1792799156       -4.1703524676       -3.5204741169
 C        -0.7694727355       -3.3144519482       -2.3399266513
 O         1.3052531686       -1.6750073703       -3.0957281245
 O         0.0030218044       -5.3419588611       -3.5350504288
 C        -1.1966279611       -2.6597618190       -5.1762960872
 C         0.7900612184       -3.9856831683       -5.9315206764
 C        -2.1904357084       -3.7828795680       -1.9552107914
 C        -2.7041253433       -2.9690751928       -0.6788283314
 C        -3.8165226763       -3.7090215794        0.1603047416
 C        -3.0865659145       -4.0024334472        1.6284801550
 C        -3.2039544238       -5.3296142541        2.3803316101
 C        -5.0050329430       -2.7516651577        0.5083976513
 C        -4.4350679337       -4.9921116181       -0.6302407913
 O        -2.3270984511       -1.8228649719       -0.4852163106
 O        -2.8201203363       -3.0072512007        2.2961448027
 C        -1.8472958338       -5.7976343060        2.8306431535
 C        -0.9422930851       -5.7780995186        1.5488127914
 C         0.4072245146       -6.5220405630        1.3723218074
 C         1.4997972208       -5.3993406568        1.9097560492
 C         2.2442736509       -4.3547957874        0.9420074361
 O        -1.3473342418       -5.0594482386        0.6741324080
 O         1.8174212999       -5.4077670060        3.0871659687
 C         0.6022151857       -7.8035281504        2.2117099208
 C         0.6190555769       -6.8532058407       -0.1076367912
 C         2.5851408146       -3.0871173273        1.7071680178
 C         1.2932826015       -2.3304146941        2.1233823273
 C         1.2239516639       -1.4536326427        3.4221721986
 C         0.5631683489       -0.0085048451        2.9661574960
 C         0.4269978846        1.1138084629        4.0453342595
 C         0.3542749929       -2.0222398467        4.5092335985
 C         2.6428153298       -1.2839879569        4.1118676546
 O         0.3062062969       -2.5026866222        1.4348351685
 O         0.3305317183        0.2351392859        1.7980994544
 C        -0.7821163959        2.0634844901        3.6983566538
 C        -2.0152583475        1.2108210271        3.4981450076
 C        -3.3196704912        1.7093164736        2.8227487254
 C        -3.0206168352        1.9277411486        1.1914697565
 C        -3.8236813400        2.9868080960        0.3784191884
 O        -1.9547995649       -0.0208701273        3.6690728669
 O        -2.2913664826        1.1527280537        0.5591923068
 C        -4.3917252756        0.5378460885        2.7421515031
 C        -3.8259896255        3.0848009772        3.4450559084
 C        -3.5897757258        3.0050236349       -1.1413723993
 C        -2.7999409208        4.2262494925       -1.5968557561
 C        -3.5878238297        5.5439433134       -1.9254503696
 C        -3.5580033731        6.5720683090       -0.5521602978
 C        -2.6354615598        7.7917250071       -0.6333768939
 C        -2.9799315021        6.2261064945       -3.1405545982
 C        -5.1257510412        5.3451145393       -2.2049242535
 O        -1.6090800458        4.0667717429       -1.7932795322
 O        -4.1456666663        6.1792117092        0.4196667894
 C        -2.3936588554        8.3878729459        0.7482584698
 C        -0.9005006058        8.7772249331        0.9555980933
 C        -0.3010749177        9.4628599919        2.2752337791
 C        -0.0502784356        8.3276411619        3.3910545996
 C         1.0158910155        8.5471287574        4.3860385713
 O        -0.0249942273        8.4295797402        0.1733559286
 O        -0.8496403318        7.4594014943        3.6168495179
 C         0.9663275313       10.2789394937        2.0130699649
 C        -1.3551107423       10.3815074172        3.0008017939
 H         7.4751157863       -3.9680101742       -7.2500817511
 H         7.2817488796       -2.1641974346       -7.3219667213
 H         8.4469855158       -2.9157819298       -6.2890044704
 H         4.0522293861       -2.5602397809       -3.6118159624
 H         3.5603435989       -0.8578826250       -3.5007519974
 H         6.9985599309       -3.2346925117       -3.2317942446
 H         5.8355667902       -2.0702367784       -2.6702868217
 H         7.4447956186       -1.5559604045       -2.7312174864
 H         7.5086966519       -0.3960586786       -6.2499373924
 H         7.6728004203        0.1103369442       -4.4839331919
 H         8.5903301246       -1.3131603533       -4.9390917607
 H         2.4990433364       -1.0165915883       -5.7894726762
 H         2.9386659065       -2.7247236317       -5.7645831967
 H        -0.0214514704       -3.2797618443       -1.5387669710
 H        -1.0400044168       -2.2575853765       -2.6806503300
 H        -1.5915695305       -1.8455508713       -4.5948007179
 H        -1.9449445980       -3.4096043827       -5.0242576234
 H        -1.0655289065       -2.4659500810       -6.1855107916
 H         1.5973858225       -4.6758074874       -5.6503523170
 H         0.0690785717       -4.7206120910       -6.3914968966
 H         1.0602788480       -3.2791930400       -6.7122803007
 H        -2.0487111741       -4.8474204716       -1.6670818086
 H        -2.8566153690       -3.7102187499       -2.8899825968
 H        -3.8057164959       -4.9739988472        3.1736456534
 H        -3.8030237065       -6.0050692840        1.7575632766
 H        -5.5178246800       -2.3963248995       -0.3915014882
 H        -4.6905868541       -1.7979022013        1.0095137622
 H        -5.6818813980       -3.2571397856        1.2148156557
 H        -4.4705266714       -4.7899406684       -1.6911706481
 H        -3.7077337983       -5.7803951289       -0.3639459092
 H        -5.3758587159       -5.3126974982       -0.2011835596
 H        -1.4249016169       -5.2717537401        3.7695441494
 H        -2.0619137539       -6.8098240003        3.2494862177
 H         3.1282650334       -4.8339392448        0.4654399001
 H         1.5749813435       -4.1236250777        0.1393112157
 H         0.3830949146       -7.5800107996        3.2317464243
 H         1.5662012527       -8.3216707316        2.2514750832
 H        -0.1855685731       -8.5190911335        1.9427771759
 H         0.8089467512       -5.9235357471       -0.6957565958
 H         1.3581749246       -7.6768242704       -0.0615251509
 H        -0.3083227047       -7.2441874542       -0.5317418400
 H         3.1250089147       -2.3765767125        1.0861524110
 H         3.0345160387       -3.3799717754        2.6315004691
 H         0.1081239942        0.6572136317        4.9975279110
 H         1.3524146234        1.6749910227        4.0909257887
 H        -0.6506456298       -2.2378836852        4.1327544289
 H         0.2213988071       -1.3411630013        5.3387398768
 H         0.7082836151       -3.0576145197        4.7308581080
 H         3.3296156932       -1.0522855490        3.2579554464
 H         2.6632624679       -0.5441453215        4.8683176121
 H         3.0514088338       -2.1792587655        4.5794418899
 H        -1.0164727013        2.8959373050        4.4189774957
 H        -0.5646015841        2.4363404391        2.6578907515
 H        -4.8022774558        2.9237518739        0.5204911861
 H        -3.4845031358        4.0329672160        0.6390757898
 H        -3.9069774912       -0.4305369494        2.4874095291
 H        -5.1317593020        0.9488527992        2.0758404828
 H        -4.7556449704        0.2700702318        3.7061353924
 H        -4.2987960141        3.0841789696        4.4944412461
 H        -3.1951351411        3.9384925210        3.3261470593
 H        -4.8449253385        3.3622351714        2.9751441877
 H        -4.5199494834        2.7488671943       -1.7536724421
 H        -2.8290031878        2.3399434572       -1.4174282937
 H        -1.5794664402        7.3225340651       -0.9369674048
 H        -2.8595655127        8.6319220548       -1.3626142806
 H        -2.5593109341        5.5216332867       -3.9319783800
 H        -2.0651651970        6.7687177905       -2.8937772542
 H        -3.6498255948        6.9751162904       -3.5537141725
 H        -5.8014943361        5.2403473933       -1.3027538391
 H        -5.4055728566        6.2188456276       -2.7728732262
 H        -5.2627779291        4.5128339248       -2.8494780297
 H        -2.8182064540        9.3252269154        0.7915261121
 H        -2.7114891601        7.7877563339        1.6027230457
 H         1.9972107758        8.7582032428        4.0328798622
 H         0.6982978575        9.3903348545        5.0647907287
 H         0.9838631176        7.6131600351        4.9594817720
 H         1.3333342687       10.8134578535        2.8251302298
 H         0.7764986329       10.9350913438        1.1818903485
 H         1.7942392075        9.5617932841        1.8208094561
 H        -1.6218460720       11.3398738568        2.3834741676
 H        -2.1402311590        9.6792495492        3.2994040205
 H        -0.8989950317       10.6890364689        3.9073965583
 Na       -1.4897255366       -0.9872138539        1.1939619654
