155

 C         6.8275060402       -3.6577819489       -7.0226566023
 C         5.8176055313       -2.9380787204       -6.1126141360
 C         6.1580023096       -1.5207167287       -5.6355164629
 C         4.6399039614       -0.8266972238       -5.3509187123
 C         3.6500434795       -1.3960737396       -4.2371984407
 C         7.0972370537       -1.6654130121       -4.3793772979
 C         6.8421500102       -0.7600015711       -6.7836295267
 O         4.8664253571       -3.5421586093       -5.6892276215
 O         4.3671971690       -0.0382149189       -6.2154691169
 C         2.3658238892       -1.9468766115       -4.8674088208
 C         1.2866324104       -2.6903447244       -4.0825357718
 C        -0.0316122659       -3.2892374852       -4.8406165540
 C        -0.8464996003       -4.0710295730       -3.7880379156
 C        -1.4324854834       -3.2241312177       -2.6786846033
 O         1.3724951918       -2.7900570581       -2.8700414783
 O        -0.8186328964       -5.3156155163       -3.8285580087
 C        -0.8325878340       -2.1791677822       -5.5870784722
 C         0.4085760448       -4.1797990910       -5.9806434937
 C        -2.6180517308       -4.0089104331       -1.9681525544
 C        -3.0603203993       -3.2841503892       -0.6954318218
 C        -4.0794054604       -3.8687924798        0.3619172309
 C        -3.1168457875       -4.2888162127        1.6022510706
 C        -3.0250957980       -5.8125119153        2.0622042780
 C        -5.1199668097       -2.7348722499        0.8619947022
 C        -4.9250050771       -5.1172884383        0.0586418223
 O        -2.5200180262       -2.2895493153       -0.2482640963
 O        -2.5001579521       -3.4270917187        2.1820659378
 C        -1.6148212064       -6.2383149561        2.5178650900
 C        -0.6269267599       -6.0137968511        1.3689806072
 C         0.8655486102       -6.5036128485        1.4660149494
 C         1.6006851961       -5.2499018995        2.0700083770
 C         2.3736536564       -4.2908076351        1.1924575483
 O        -1.0203872225       -5.5137607334        0.2846084110
 O         1.3404185668       -5.0127734080        3.2381267023
 C         1.1761122007       -7.6267706108        2.5180288060
 C         1.3447801424       -6.9589576019       -0.0387342524
 C         2.7525923658       -2.9905408181        1.8618619581
 C         1.5279544258       -2.1632977946        2.1728564170
 C         1.5424862887       -1.1544877367        3.3246477184
 C         0.6634679783        0.2063839980        2.9890317237
 C         0.2428098414        1.2342679037        4.0370995837
 C         0.7150086617       -1.9100152615        4.4792410328
 C         2.9415497523       -0.8415325319        3.9702638397
 O         0.4594849656       -2.2844761058        1.5686981309
 O         0.3103081746        0.4068443474        1.8714859843
 C        -0.9383367003        2.1932555816        3.7804508221
 C        -2.1514464702        1.3526624234        3.5364630089
 C        -3.5561300618        2.0265457101        2.9777350147
 C        -3.5580421670        1.7242016340        1.3836951908
 C        -4.0371389567        2.9375416290        0.5101953984
 O        -2.1279547247        0.1523769665        3.6505226344
 O        -3.0846221887        0.7290993003        0.8762382536
 C        -4.7326265343        1.1692850931        3.5847909602
 C        -3.5440114325        3.5057096700        3.3234517442
 C        -3.3906162548        2.8182639152       -0.9334878161
 C        -2.7582494373        4.1729281069       -1.3317684897
 C        -3.6377566374        5.4334366970       -1.4447434335
 C        -3.1790184441        6.4400274364       -0.2653814952
 C        -1.7446108857        7.2153748595       -0.3315445692
 C        -3.3915755454        6.0254865670       -2.7287960528
 C        -5.1946252519        5.1376073912       -1.3309003452
 O        -1.5464376104        4.1836760939       -1.4575533417
 O        -3.9337632428        6.5936134796        0.7169917132
 C        -1.3022317880        7.6079097225        1.0897869540
 C        -0.2076043290        8.7325471103        0.9326086655
 C         0.2296608271        9.6261928731        2.1975136950
 C         0.5884456653        8.7186059040        3.3595917262
 C         2.0550137147        8.8537734375        3.8644149756
 O         0.4803858689        8.7251002770       -0.0571730296
 O        -0.2774479301        8.0543393927        3.9246496093
 C         1.2581065318       10.6520412221        1.8237389757
 C        -1.0911106784       10.4799507069        2.4879149812
 H         6.3184999142       -4.6247676320       -7.1192132085
 H         6.8905650439       -3.2740666069       -8.0877455337
 H         7.8339888170       -3.7301888430       -6.5627266600
 H         4.0635563904       -2.2000781657       -3.6440657076
 H         3.4079581639       -0.4423682964       -3.7182354473
 H         6.7302370576       -2.4098733205       -3.6540866620
 H         7.0006445518       -0.6879534327       -3.8663306786
 H         8.1299679306       -2.0985284669       -4.6958704077
 H         6.1578989137       -0.6033796611       -7.5043137273
 H         7.2386075498        0.1636601888       -6.4286501794
 H         7.6340108080       -1.4326802078       -7.1589790401
 H         1.9643960294       -1.0363921841       -5.3256137891
 H         2.6897378191       -2.5225949142       -5.7298070478
 H        -0.8301216540       -2.8931743821       -1.8948558515
 H        -1.7860254824       -2.2766658266       -3.1379148370
 H        -0.8847579327       -1.1854007988       -5.0807097087
 H        -1.8063481542       -2.6471393058       -5.8619195364
 H        -0.3533034304       -1.9917851797       -6.5204390195
 H         1.1932605735       -4.8656036873       -5.5950127090
 H        -0.4040070596       -4.6555918022       -6.4481576807
 H         1.0093519511       -3.6086245257       -6.6517711095
 H        -2.0740165175       -4.8657549429       -1.5905229440
 H        -3.4484920573       -4.2577361299       -2.5930218153
 H        -3.7941336802       -5.8937927917        2.7615660753
 H        -3.4041102099       -6.3784270649        1.2704905708
 H        -5.8318382703       -2.3762357245        0.1733716985
 H        -4.5208760980       -1.9640192658        1.1991676880
 H        -5.6987513278       -3.0269106552        1.7868557105
 H        -5.7355669878       -4.8256615189       -0.6747824426
 H        -4.3869509033       -5.8877824291       -0.4900466900
 H        -5.4101673758       -5.5449583767        0.9132220545
 H        -1.3468264560       -5.6581652794        3.3599978856
 H        -1.6190533996       -7.2232067582        2.8627664390
 H         3.2292445327       -4.7918627131        0.7003131374
 H         1.6076960333       -4.1405573041        0.4230844397
 H         0.8979194285       -7.2707167436        3.5312365322
 H         2.2226244097       -7.8633670457        2.4671323713
 H         0.6336995225       -8.5739521524        2.3181655659
 H         1.2888948552       -6.0408389070       -0.6531969956
 H         2.3069514481       -7.3324959775       -0.0556249544
 H         0.6039615665       -7.6722635517       -0.2156608621
 H         3.4090925668       -2.3446823907        1.2411992761
 H         3.2569431934       -3.1270411011        2.8096419852
 H        -0.1015903534        0.6937219815        4.9391641831
 H         1.0272383112        1.8683318503        4.3487489880
 H        -0.2269242649       -2.2018839406        3.9822216162
 H         0.5565198963       -1.4389206775        5.4483872396
 H         1.1847596522       -2.8257107854        4.7288354810
 H         3.7401368927       -0.6213575118        3.2301205213
 H         2.9001539673       -0.0221867811        4.6176269456
 H         3.2111250918       -1.7333263714        4.5259371114
 H        -1.0849370424        2.8340425181        4.5664900722
 H        -0.7838324125        2.8369829735        2.9211006405
 H        -5.1188653751        2.9416201433        0.3574397244
 H        -3.8206098148        3.8168466561        0.9692414878
 H        -4.2861620478        0.8024718667        4.5342192898
 H        -5.1234539522        0.5330873044        2.8126025590
 H        -5.5546056956        1.8661744271        3.7180095416
 H        -3.3758616062        3.5747324780        4.3487532748
 H        -2.6920817657        4.0645621497        2.8284733489
 H        -4.4110093011        4.0272260158        3.0198422603
 H        -4.1227413405        2.3105189311       -1.5815659765
 H        -2.5409672231        2.1741738020       -0.9405882859
 H        -1.1283464455        6.4350850750       -0.6111441943
 H        -1.8108541423        7.9544371505       -1.1192652895
 H        -3.5979637314        5.2723316652       -3.4797769434
 H        -2.3229475071        6.2997830637       -2.7775422293
 H        -3.9808271217        6.8249612240       -2.9925136438
 H        -5.4641321201        4.5515787192       -0.5007682709
 H        -5.6260286206        6.1510375485       -1.1425187488
 H        -5.5700565652        4.7801145365       -2.3506810983
 H        -2.1125692104        7.9076587473        1.6409899285
 H        -0.9743302303        6.6613788168        1.6217889430
 H         2.6320744012        9.1128662526        3.0109930388
 H         2.0711623872        9.6927154186        4.5448348125
 H         2.5380135760        7.9909055258        4.3496523453
 H         1.6272857329       11.3024011855        2.6282869905
 H         0.7433050092       11.2795569569        1.1153787145
 H         2.0356879885       10.2547838924        1.1437566445
 H        -1.3959372424       10.9107706340        1.5068683185
 H        -1.8946613901        9.8601468681        2.7975332380
 H        -0.8934055140       11.3090442111        3.1709028533
 Na       -1.6623632824       -1.1576461386        1.8120840401
