155

 C         6.6805097776       -3.8646055992       -7.0034502665
 C         5.6605158330       -3.0917054681       -6.2309455721
 C         5.8732197690       -1.5100745278       -5.8599962726
 C         4.4712087792       -0.9149100087       -5.5403901317
 C         3.7182187350       -1.5500216729       -4.3298324646
 C         6.8457704681       -1.4730362686       -4.6540073260
 C         6.4711701153       -0.6811969951       -7.0345480427
 O         4.7615803995       -3.7644225026       -5.7603587728
 O         3.9630366596        0.0489261109       -6.1056572457
 C         2.3383008562       -2.0973688182       -5.1059099206
 C         1.3958371859       -2.7905418354       -4.2180709656
 C         0.0299518852       -3.2591586972       -4.8729540683
 C        -0.9966928928       -3.8849432901       -3.8388212526
 C        -1.7155172594       -3.0917874197       -2.6839248668
 O         1.5765427580       -2.9162441187       -3.0263888651
 O        -1.2808101837       -5.0213650603       -3.9877880757
 C        -0.5765237186       -2.0242450443       -5.5686919330
 C         0.5109076769       -4.3803154035       -5.8315615332
 C        -2.5588865925       -4.0002981450       -1.8326586132
 C        -2.9485068220       -3.2768812388       -0.5575986296
 C        -3.9257421836       -3.8995784252        0.4655574364
 C        -3.0795959291       -4.4344952718        1.7104103065
 C        -2.9997969297       -6.0187363024        2.1119356285
 C        -4.8513199107       -2.7996848229        0.9613327901
 C        -4.8430261686       -5.0323151031       -0.1918726722
 O        -2.5319558982       -2.1547552274       -0.3694410994
 O        -2.3652067669       -3.6293107077        2.2425863038
 C        -1.5403343233       -6.2249685728        2.4692104980
 C        -0.6304381748       -6.1946273395        1.2342737601
 C         0.8805587579       -6.4754631894        1.5028566171
 C         1.5580054956       -5.1430923549        2.0617373334
 C         2.4349566690       -4.1713226399        1.1576421180
 O        -1.0387015480       -5.9059669731        0.1565168809
 O         1.4333977826       -4.8220777236        3.2413080013
 C         1.0737801403       -7.6099599707        2.5154190594
 C         1.5817296276       -6.8907768499        0.1410862308
 C         2.7407226169       -2.9736957700        1.9835178648
 C         1.4341319521       -2.0250876758        2.1908799701
 C         1.4353407801       -1.1116637564        3.3796853576
 C         0.6116284262        0.2082650396        3.0643322620
 C         0.3678316321        1.2271759487        4.1382923991
 C         0.7752571633       -1.8423690826        4.5674936996
 C         2.8447410390       -0.5161591460        3.7223532526
 O         0.4553045239       -2.2450516472        1.5333650460
 O         0.1815836454        0.4994292694        1.9673956501
 C        -0.8559306019        2.1558850382        3.8207341838
 C        -2.1589182907        1.3261408887        3.6255081328
 C        -3.4584085053        2.1860349207        3.0899827987
 C        -3.5514676952        1.6990857157        1.6081611240
 C        -4.1145911510        2.6913351212        0.5527267773
 O        -2.1375652389        0.0835416017        3.6605809797
 O        -3.2002525288        0.5618511023        1.3711596297
 C        -4.7105991464        1.4176970227        3.6470125742
 C        -3.6574079028        3.6762737813        3.5126774627
 C        -3.3239999838        2.8608412972       -0.7602684001
 C        -2.7675607542        4.1174393227       -1.3593767858
 C        -3.5881660175        5.4207377743       -1.3521738659
 C        -3.0057805287        6.4332940721       -0.1909401336
 C        -1.5194141898        6.9109677990       -0.1903690181
 C        -3.3244266079        6.0375270886       -2.7509197502
 C        -5.1667881424        5.3458548742       -1.1127612017
 O        -1.5828595316        4.1747672455       -1.6584683567
 O        -3.7725073846        6.6995390283        0.6763064486
 C        -1.1407807353        7.5927443286        1.0941996978
 C        -0.1337081398        8.6625609833        0.8849180900
 C         0.2241396789        9.6814802248        2.1873485652
 C         0.7606195452        8.8417846787        3.3833868235
 C         2.2651549830        8.8221048838        3.7773394868
 O         0.5049514748        8.8280421359       -0.1460158673
 O        -0.0658135492        8.2085775131        3.9772451995
 C         1.2608820599       10.6199399987        1.5984454345
 C        -1.0657423679       10.4300834340        2.6042239033
 H         6.6097027973       -4.9486666685       -6.8946938358
 H         6.5714217812       -3.7206022318       -8.0415983445
 H         7.6068466992       -3.4202648186       -6.6251275945
 H         4.2752916575       -2.4613664037       -4.0269709045
 H         3.4775189744       -0.8208845355       -3.5417749735
 H         6.8712503290       -2.3790611356       -4.0896419253
 H         6.5435058157       -0.6826845798       -3.9667151961
 H         7.7899791411       -1.4275503688       -5.0968332002
 H         5.7308323492       -0.5970393555       -7.9530074432
 H         6.4901441538        0.3149631793       -6.5912164419
 H         7.4132446802       -1.0755602115       -7.3434386583
 H         1.9487328617       -1.1277560465       -5.4517063117
 H         2.6038675904       -2.6134858267       -6.0642714533
 H        -0.9285502866       -2.6532617580       -1.9606250237
 H        -2.3205083284       -2.2425838780       -3.0069411135
 H        -1.1187383564       -1.4394682371       -4.8271202115
 H        -1.2018368302       -2.2480261572       -6.4243161303
 H         0.2696399873       -1.3695911030       -5.9047245091
 H         0.9719626126       -5.1589178451       -5.2532429685
 H        -0.4085216718       -4.8302030808       -6.3165033689
 H         1.2565305553       -4.0304452770       -6.5640824534
 H        -1.9498174939       -4.9223568529       -1.6520448419
 H        -3.5320846786       -4.1873595727       -2.4026402716
 H        -3.7379947691       -6.1492084663        2.9649969668
 H        -3.4151219043       -6.5892992466        1.2499232714
 H        -5.4533788813       -2.4677753954        0.0664649895
 H        -4.4880923528       -1.8541500537        1.5011686708
 H        -5.5583095845       -3.2474157755        1.5984836133
 H        -5.6101975773       -4.6343456401       -0.8045537967
 H        -4.3771209809       -5.8663163865       -0.7643157048
 H        -5.3426709861       -5.5443195485        0.6953574623
 H        -1.2691754299       -5.4399863386        3.2398636513
 H        -1.4666671413       -7.2220467561        3.0316955264
 H         3.3248162612       -4.7366147539        0.8860543047
 H         1.9050250792       -3.8754009225        0.2557624250
 H         0.6758044538       -7.3251619373        3.4892636390
 H         2.1819706392       -7.8844005332        2.6225621348
 H         0.4475818733       -8.4635565696        2.1894483638
 H         1.2514486118       -6.2650780904       -0.6771449530
 H         2.6308274072       -6.5938340113        0.3793610395
 H         1.4859423540       -7.9758610171        0.1103555775
 H         3.3970830423       -2.2968033854        1.4652372737
 H         3.2683513152       -3.1931982305        2.9266309005
 H         0.3254413998        0.8485176065        5.1578483042
 H         1.2634605919        1.9235685870        4.2012624748
 H        -0.2279241416       -2.1206680365        4.3360120598
 H         0.7948466647       -1.2711035616        5.4730579841
 H         1.4070103789       -2.6942839847        4.9394439871
 H         3.0855723229        0.2034012788        2.9515550046
 H         2.8481393007        0.0163533512        4.7160892827
 H         3.6088712762       -1.2935449722        3.7627836869
 H        -1.1423003890        2.8931411561        4.6986341731
 H        -0.5653772373        2.8265108993        2.9896244216
 H        -5.1421319949        2.4353430921        0.3606824876
 H        -4.2120872596        3.7989558096        1.0435800120
 H        -4.5793452770        0.3615524674        3.5320460674
 H        -5.4690156149        2.0000572456        3.1549419345
 H        -4.8918257189        1.7617193009        4.6459704624
 H        -3.6558821748        3.8080063935        4.6777543203
 H        -3.0230177283        4.3606270799        3.0254716937
 H        -4.7078146695        3.9483771043        3.0869646843
 H        -4.0191301817        2.4917113329       -1.5173255252
 H        -2.4463886011        2.1921935046       -0.8565593347
 H        -0.7790998981        6.1122625087       -0.6328864392
 H        -1.6749272350        7.7136589671       -0.9614841668
 H        -4.0470002766        5.7418186237       -3.5149360269
 H        -2.3289635824        5.8392776459       -3.0140954010
 H        -3.4445223483        7.1415217245       -2.7150167581
 H        -5.4936080638        4.5330951432       -0.4150169860
 H        -5.5748311607        6.2976265797       -0.9220001175
 H        -5.4719295405        5.0811133007       -2.0567057827
 H        -2.0756464187        7.9283670062        1.6622429172
 H        -0.6484629909        6.9515752990        1.7974487316
 H         2.9549466097        8.5573495043        2.9484334622
 H         2.4993383708        9.8666548609        4.1206457189
 H         2.4464599079        8.1525719558        4.6206919611
 H         1.6331065748       11.3255979132        2.3327167250
 H         0.8714356082       11.2025120591        0.7319454011
 H         2.0548745497       10.0406447898        1.1327317579
 H        -1.4569914404       10.8465221813        1.6496730188
 H        -1.8272076793        9.7356095753        3.0740969545
 H        -0.8795581922       11.3215057080        3.2142710210
 Na       -1.8559177182       -1.4397300967        1.7088801243
