155

 C         6.9845708629       -3.5068289984       -7.4698983740
 C         5.4765547488       -3.1209476109       -7.5522445391
 C         4.8982042864       -1.7624656906       -7.2037238920
 C         3.6483695287       -1.6646472023       -6.2666699678
 C         2.7180284080       -2.7760505531       -5.8296047896
 C         6.0690897122       -1.0702864336       -6.5120721087
 C         4.4835344687       -1.0432790766       -8.5113782037
 O         4.8097384008       -4.0111699849       -8.1140083213
 O         3.3788398492       -0.5473582765       -5.8660552408
 C         1.3448279789       -2.1312403408       -5.4079624947
 C         0.4520491639       -3.0557504222       -4.5935841340
 C        -0.9974196218       -3.3206553388       -5.1719495591
 C        -1.9032657113       -3.9054716270       -3.9151243234
 C        -1.8324651686       -3.1755363641       -2.5744594871
 O         0.9213766461       -3.6298918240       -3.6318846190
 O        -2.6419825479       -4.7994648247       -4.1729544051
 C        -1.6240279659       -1.9818883296       -5.6367600442
 C        -0.9745751304       -4.5429240216       -6.2417240609
 C        -2.9902901061       -3.7609389725       -1.6758491972
 C        -3.0585695678       -3.0659679221       -0.3089358905
 C        -4.0155428631       -3.6050246998        0.8827491894
 C        -3.0686135832       -4.0343223869        2.0718339804
 C        -2.4714226779       -5.4170394787        1.9817746641
 C        -5.0238378807       -2.5677906985        1.4326236529
 C        -4.7697197411       -4.8698474579        0.4976397871
 O        -2.3660414186       -2.0809761817       -0.0607522969
 O        -2.9457447179       -3.2810366392        2.9728635037
 C        -1.0865129633       -5.7819554693        2.4668488250
 C        -0.0320011882       -5.7367977874        1.3999908936
 C         1.4771582553       -6.0319481962        1.8098873605
 C         2.0851090202       -4.6150879966        2.1015220536
 C         2.0841989489       -3.7313205126        0.7641749270
 O        -0.3409427029       -5.2874250663        0.3384630819
 O         2.3735219158       -4.2411447746        3.1818152150
 C         1.5687822855       -6.7929179732        3.0667811568
 C         2.1788442552       -6.8161845513        0.6900917049
 C         2.4379348079       -2.2824083326        1.3128135084
 C         1.1817314549       -1.7169778540        2.0670544010
 C         1.4859819149       -0.6392894599        3.1821310961
 C         0.3505720789        0.3357565548        3.4148868930
 C         0.3206101631        1.1450618662        4.7604106583
 C         1.7708376458       -1.5228946059        4.5147016750
 C         2.7192097653        0.2432079223        2.7841405606
 O         0.1031600239       -2.1816425215        1.9014388502
 O        -0.4437147944        0.6714254866        2.5803251565
 C        -1.0750862588        1.5148885091        5.3087189977
 C        -2.2176250537        0.7352234510        4.5173145955
 C        -3.4414425924        1.5022122906        3.9535233563
 C        -3.3974104677        1.5294680940        2.3714041544
 C        -3.3975354917        2.8743942818        1.6959920447
 O        -2.2203155114       -0.4547358182        4.1975483720
 O        -3.6501536627        0.4831003289        1.8044573890
 C        -4.6416049365        0.6208240897        4.2865794097
 C        -3.4924421430        2.9460795698        4.5863518517
 C        -3.5310091660        2.8218704385        0.1565924597
 C        -2.6369552093        3.8953940705       -0.6728577778
 C        -3.1783949484        5.4428280050       -0.9546433732
 C        -2.5856680641        6.3099473719        0.1577097319
 C        -1.0460720464        6.5730084909        0.0270849312
 C        -2.7290306393        5.7259398059       -2.3859254133
 C        -4.7335237256        5.4000545731       -0.9737844335
 O        -1.5802430357        3.4764939270       -1.0880432751
 O        -3.2299587120        6.6625749814        1.1037729883
 C        -0.6416399409        7.6157242213        1.1439153570
 C         0.5490346882        8.4738708700        0.8798443151
 C         0.9364874135        9.5755424485        1.9630806989
 C         2.2130425820        8.9758627803        2.5486625671
 C         3.6412819245        9.2930376992        1.8238947681
 O         1.1646419665        8.4575038655       -0.1560391327
 O         2.1172503231        8.1580522404        3.4478180062
 C         1.2655117238       10.9538083023        1.2326923059
 C        -0.2088002754        9.7567814273        2.9576746432
 H         7.5907728354       -2.6626031772       -7.5953894493
 H         7.2198398543       -4.0376835321       -6.4979226247
 H         7.2488954327       -4.1742197543       -8.2213217313
 H         2.5927802223       -3.3531303135       -6.7455345134
 H         3.1675739003       -3.3469134989       -5.0117331991
 H         6.5788966476       -1.6319720557       -5.6939559187
 H         5.7780382465       -0.2082648702       -5.9451192626
 H         6.7969521273       -0.8130097279       -7.1595097905
 H         3.8426873196       -1.7231546045       -9.0995202209
 H         3.8643792511       -0.1258985039       -8.2953686093
 H         5.3208464926       -0.8523058016       -9.1917528265
 H         1.5798800855       -1.2025806578       -4.9547019930
 H         0.9318487186       -1.7719020364       -6.3603075981
 H        -0.8033339608       -3.4495098492       -2.2604312169
 H        -1.7048355381       -2.0610357668       -2.5626205614
 H        -1.3237477893       -1.1881531808       -4.8804840520
 H        -2.7445160512       -1.9869921244       -5.5943307337
 H        -1.3098199204       -1.6097647198       -6.5939152210
 H        -0.6230942875       -5.5505170670       -5.8452674653
 H        -1.9807406075       -4.6521115920       -6.5542153710
 H        -0.3158447201       -4.2971066602       -7.0794312199
 H        -2.9535316276       -4.8209512768       -1.6082003384
 H        -3.9491730641       -3.5660990642       -2.2306322671
 H        -3.1693732518       -6.1387544639        2.5306069092
 H        -2.5056924051       -5.6583723227        0.8697004056
 H        -5.6118367238       -2.1455518194        0.6295016084
 H        -4.3625179400       -1.7574175227        1.7930859380
 H        -5.6635863715       -2.9316013972        2.3203699900
 H        -5.7300307608       -4.6515127435       -0.0628036468
 H        -4.2329817093       -5.5749643249       -0.1185165370
 H        -5.0167552412       -5.5338978110        1.2939019105
 H        -0.6986396464       -4.9757100856        3.1823321412
 H        -1.0910001813       -6.7227387697        3.0269306021
 H         2.7710476073       -4.1197777434       -0.0417855034
 H         1.0975299866       -3.7902269692        0.3054659154
 H         1.6149316047       -6.1806100915        4.0252948585
 H         2.5669443592       -7.2434355801        2.9716868997
 H         0.8492051806       -7.6613412726        3.0586773134
 H         2.3910038750       -6.3532232385       -0.2188106293
 H         3.1973564076       -7.1595125995        1.0440685468
 H         1.5411289232       -7.7624159461        0.6102169244
 H         2.7815302090       -1.6406578213        0.4765052972
 H         3.1748508555       -2.3352522896        2.1461912321
 H         0.9671189495        0.5094472782        5.3644050490
 H         0.8473664199        2.0318656221        4.4350161262
 H         0.8348045349       -2.0937162312        4.6928216484
 H         2.2265816796       -1.0850912119        5.4041442396
 H         2.5355774635       -2.2141985454        4.2630360897
 H         2.4651854520        0.7267062654        1.8033960142
 H         2.9158960487        1.0491271800        3.4236351605
 H         3.6693675836       -0.3031990163        2.7646812241
 H        -1.2062315855        1.2869930360        6.3559074210
 H        -1.2980324617        2.5344749459        5.1068541924
 H        -4.4225252991        3.3394855320        2.0619957239
 H        -2.6039382210        3.5595395337        1.9963555671
 H        -4.9464802243        0.9574669739        5.3026058114
 H        -4.3111243175       -0.4321066356        4.3840455429
 H        -5.4745549649        0.5069201427        3.5344261718
 H        -3.7753584511        2.9499482206        5.6287082159
 H        -2.6606907771        3.5193344353        4.4102111989
 H        -4.3067750326        3.4739243682        4.1840541603
 H        -4.6478402521        2.9481735099       -0.0847046634
 H        -3.3007112857        1.8495965752       -0.1894556422
 H        -0.5951244194        5.6319827324        0.1877907536
 H        -0.7160729542        6.8621534699       -0.9315740942
 H        -3.3003385053        5.0237327585       -2.9431557750
 H        -1.6501801428        5.5408054469       -2.4970801892
 H        -3.0550769906        6.7138975076       -2.7409979901
 H        -5.2673196683        5.5807432937       -0.1268537126
 H        -4.9934616224        6.2666334344       -1.5662775163
 H        -5.2023077781        4.5898161803       -1.5259900176
 H        -1.4711487657        8.1288536930        1.4645447702
 H        -0.4347806413        6.9405984475        1.9580775762
 H         3.5171826725        9.3008591797        0.7281912087
 H         4.0290438643       10.2152292509        2.2776923043
 H         4.5221938993        8.6449048092        1.9890507492
 H         1.6516298858       11.8143763818        1.8149379049
 H         0.3052985064       11.3274764447        0.8254014907
 H         1.9152888669       10.7675684490        0.3486614827
 H        -1.1885524574        9.9227763381        2.5846151565
 H        -0.3432094475        8.8145239668        3.5282315865
 H        -0.0654490409       10.5377835004        3.7592864999
 Na       -1.9370253103       -1.1935157448        1.8947383127
