155

 C         6.8202485449       -3.6241702715       -7.4811660828
 C         5.3564114256       -3.2186950749       -7.7447865755
 C         4.8934760686       -1.7906030924       -7.3010198696
 C         3.6505882885       -1.6939848218       -6.3713152042
 C         2.5889502251       -2.8982463632       -6.0890938505
 C         5.9175338811       -0.7883977408       -6.6847076008
 C         4.4941662134       -1.1087482394       -8.6665808288
 O         4.6439585113       -3.8911636823       -8.4225894252
 O         3.4106572554       -0.6138082869       -5.8957873154
 C         1.3222858256       -2.2570838506       -5.4015729710
 C         0.3537991593       -3.1204975907       -4.6005698024
 C        -1.2475738557       -3.3320139057       -5.1199753700
 C        -2.0191929856       -3.9785522983       -3.9176094763
 C        -2.0491715356       -3.2455451026       -2.5082955109
 O         0.6337566550       -3.7265301514       -3.5659797651
 O        -2.6393148513       -5.0711288384       -4.0292949890
 C        -1.9297681185       -1.9264633231       -5.5038797899
 C        -1.2612316906       -4.2511107615       -6.3604792142
 C        -3.0687194840       -3.8791272003       -1.5728606206
 C        -3.0864964647       -3.1415449784       -0.2718270487
 C        -3.9549013089       -3.6856444397        0.8580514446
 C        -3.0817667111       -4.0895381363        2.0395272292
 C        -2.5619936676       -5.5308360013        2.0494387455
 C        -4.9992668756       -2.5597824066        1.2303353130
 C        -4.8389907733       -4.9179120387        0.3636445331
 O        -2.6621269308       -2.0153626123       -0.1909404262
 O        -2.8066187137       -3.3787444709        3.0274227806
 C        -1.1225687110       -5.7500771555        2.6086006350
 C        -0.0224860783       -5.5799526102        1.5484544543
 C         1.4309291255       -5.8960032926        1.8692891554
 C         2.2182224811       -4.5431369404        2.0409425480
 C         2.4960268643       -3.6224775885        0.8294181258
 O        -0.2382094142       -5.0393414105        0.4821598620
 O         2.5630028838       -4.2506300910        3.2386769578
 C         1.4790797646       -6.8401848372        3.1644160822
 C         1.9515328523       -6.6532971076        0.5849829230
 C         2.5144070901       -2.1587048497        1.1666462984
 C         1.2660280390       -1.6404986529        1.9701610245
 C         1.5866917586       -0.5393360141        3.1042362592
 C         0.3874807783        0.4399661333        3.4100794205
 C         0.2582142688        0.9609525542        4.8695456038
 C         1.9604179036       -1.4246825947        4.3270195317
 C         2.7685662649        0.4554970288        2.7252602244
 O         0.2039469318       -2.2615314703        1.8466985226
 O        -0.2275331176        0.9342075683        2.4823666307
 C        -1.1160872285        1.3994032180        5.3691918707
 C        -2.2322511025        0.6333525288        4.5885458274
 C        -3.6321627445        1.4675737900        4.0529239215
 C        -3.4119190564        1.6359382288        2.4478733648
 C        -3.2359831774        3.0659382020        1.7654513353
 O        -2.0451706875       -0.5323322116        4.4229278805
 O        -3.4052666030        0.6691354190        1.7018797801
 C        -4.9581641703        0.6568816796        4.3918237047
 C        -3.6839857855        2.7922945131        4.7273652193
 C        -3.4332180674        2.8518448595        0.2331776269
 C        -2.6041968660        3.8137918105       -0.5567603976
 C        -3.2171867541        5.2673217562       -0.9008903894
 C        -2.4905941943        6.1690696328        0.1319433038
 C        -1.1233168052        6.7459164542       -0.1000334799
 C        -2.6770523243        5.6359154014       -2.3892154831
 C        -4.7081328596        5.3515916073       -0.8037456867
 O        -1.3863244272        3.7112578648       -0.6220135768
 O        -3.1900629617        6.5048059789        1.1226314125
 C        -0.5028191580        7.5217470049        1.0356710732
 C         0.5793634138        8.5054623728        0.7387854191
 C         0.9813155783        9.4894044254        1.8979964911
 C         2.4229614855        8.8592645930        2.4166204725
 C         3.6771585228        9.1925487601        1.7099168302
 O         1.1023123282        8.4385178787       -0.3683712321
 O         2.4162308747        8.1896062098        3.4157060926
 C         1.1799021363       10.9078932937        1.2149789318
 C         0.1302243253        9.6434366272        3.1704699984
 H         7.4029768979       -3.6014709882       -8.4295197760
 H         7.3227283136       -3.0254704686       -6.7726037070
 H         6.7709674697       -4.7151110799       -7.1845211469
 H         2.3167308270       -3.2622611687       -7.1042069818
 H         3.1905810115       -3.5689101664       -5.4632921870
 H         5.9607224565       -0.9686936273       -5.5894875975
 H         5.6606302826        0.2948095391       -6.6955390534
 H         7.0378036791       -0.8592562261       -7.0018430198
 H         3.9661060581       -1.6660873136       -9.3703356176
 H         3.9229093918       -0.2696322783       -8.4319357879
 H         5.4248783607       -0.7984346684       -9.1814747349
 H         1.6873577296       -1.4123360086       -4.7473920047
 H         0.8824222581       -1.7418719862       -6.2249423719
 H        -1.1244602030       -3.0623614285       -2.0013468351
 H        -2.3721030565       -2.2520986998       -2.7179328260
 H        -1.3088459348       -1.0824119682       -5.3695097772
 H        -2.8238242443       -1.6758703039       -4.9885849424
 H        -2.1124906545       -2.0145663815       -6.5850206123
 H        -0.8829181633       -5.2136098362       -6.0814544710
 H        -2.3051050622       -4.4898356685       -6.7296597569
 H        -0.6477445425       -3.7686712092       -7.1509533713
 H        -2.7349324685       -4.9726002023       -1.4693471929
 H        -4.0017612609       -3.8575538468       -2.1049303944
 H        -3.1478125495       -6.0174404240        2.7521362484
 H        -2.7037455115       -5.9544001878        1.1208661261
 H        -5.7658707005       -2.6946378458        0.4524546642
 H        -4.6732694072       -1.5582202892        1.1304273053
 H        -5.3577473547       -2.7677956484        2.2060134258
 H        -5.3812804726       -4.5948416381       -0.4564657329
 H        -4.2674913862       -5.8131286054        0.0470487625
 H        -5.5675898594       -5.3583964801        1.0806480309
 H        -0.8688416733       -5.1427318763        3.4076587820
 H        -1.0639857870       -6.7535884753        2.9991381007
 H         3.4543623152       -3.8820738982        0.4141765997
 H         1.7574506928       -3.9166633101        0.0562746499
 H         1.1955969952       -6.2798671179        4.0015888922
 H         2.4643161162       -7.2432722160        3.3679294128
 H         0.7065518747       -7.5390168225        3.0139821833
 H         2.0706197377       -5.9495349359       -0.3093192955
 H         2.9306065228       -6.9855123017        0.7298272895
 H         1.3767487063       -7.4793977890        0.3623114595
 H         2.6010693785       -1.5696544732        0.2661408339
 H         3.3443112806       -2.0204631052        1.8410910620
 H         0.7397201220        0.2218068590        5.4360181032
 H         0.8836220929        1.8597973806        4.8015395270
 H         1.1252471771       -2.0536174298        4.6132109421
 H         2.2081213918       -0.7835367776        5.1773606848
 H         2.9717487150       -1.9296627314        4.2364137772
 H         2.6500819626        0.9609136438        1.7907407940
 H         2.9358286618        1.2494828583        3.5179458122
 H         3.6977010465       -0.1023505648        2.7686407920
 H        -1.1330664464        1.0877455822        6.4620127862
 H        -1.3053758089        2.4672526706        5.3392326042
 H        -3.9283694951        3.7872296077        2.2127315618
 H        -2.2600128684        3.4866120951        1.9577335628
 H        -4.8099244855       -0.0890795268        5.1872535931
 H        -5.4142407265        0.1609907056        3.5554047213
 H        -5.6559323974        1.3779782923        4.7514440877
 H        -3.5558270928        2.5741003958        5.7713670811
 H        -2.8963963947        3.6055147561        4.3451779089
 H        -4.6577862834        3.2666128642        4.8545660550
 H        -4.4565551177        2.9408400966       -0.0264342667
 H        -3.1418910051        1.7851750873        0.1182319167
 H        -0.4067817059        5.9184202810       -0.4990445974
 H        -1.1555012260        7.4514247705       -0.9664653113
 H        -3.2423152049        5.1262843910       -3.2384540768
 H        -1.5989338489        5.4163307582       -2.3915024665
 H        -2.8594158292        6.6782337003       -2.5478694525
 H        -4.9741490145        5.0065593745        0.2765393377
 H        -5.3510820951        6.2277389022       -0.9806776348
 H        -5.1635587178        4.5578384777       -1.4187717176
 H        -1.2652805802        8.0596807474        1.6967949254
 H        -0.2083025631        6.7128114180        1.7711336404
 H         3.6369497483        9.2050932335        0.6518472434
 H         4.1388640367       10.0707888753        2.1608670412
 H         4.4094301465        8.4296708667        1.9329388628
 H         1.8131510227       11.5218554184        1.8182204323
 H         0.2452796638       11.4502527101        1.2214635543
 H         1.6605467268       10.8826195043        0.2441934942
 H        -0.9222377216        9.9923768177        2.9223982433
 H         0.0000186983        8.7561572695        3.7398968329
 H         0.4051215683       10.3588949049        3.8580825756
 Na       -1.8887711744       -1.2368308205        2.0727133146
