155

 C         5.8572028690       -4.0550311283       -7.0404299596
 C         4.6449787060       -3.3205087856       -7.7820113940
 C         4.4234450061       -1.8148922679       -7.4953748827
 C         3.3224296956       -1.6075547261       -6.4081606524
 C         2.2097818549       -2.6376979051       -6.4662628177
 C         5.6276898504       -0.9398055994       -7.3549319992
 C         3.6776246174       -1.2471573877       -8.8462438120
 O         3.8925566518       -3.8825548123       -8.5311955381
 O         3.3799933712       -0.6657028780       -5.6631550748
 C         0.7778251895       -2.1875435850       -6.1960513363
 C         0.0188825698       -3.1425662562       -5.1485331418
 C        -1.4817999863       -3.1631659762       -5.1403531058
 C        -1.9901181512       -3.9744357690       -3.8426088295
 C        -2.0325800236       -3.1953575621       -2.4702809099
 O         0.7119843236       -3.9566398952       -4.5461355038
 O        -2.1552344463       -5.1912901552       -3.9620354638
 C        -2.1220569484       -1.7496059760       -5.3011267942
 C        -1.7562731823       -4.0280804266       -6.3906658952
 C        -2.9148894626       -3.8763656562       -1.5188674685
 C        -3.0575052552       -3.2787168828       -0.2135138141
 C        -3.7757869315       -3.9788094847        0.9205484639
 C        -2.8249330026       -4.4510012555        2.0972484027
 C        -2.6322904305       -5.9556181780        2.2462970493
 C        -4.7777701174       -2.8917185648        1.5028977715
 C        -4.6930640552       -5.2232888152        0.5735462001
 O        -2.6856440866       -2.1111014587       -0.0117325182
 O        -2.3942696490       -3.6170441245        2.8604383039
 C        -1.2721631617       -6.3856148903        2.5640160487
 C        -0.2288662134       -5.4981291994        1.7449624778
 C         1.3182718145       -5.7634431669        1.8441403188
 C         2.0601428082       -4.3234085186        2.0022527668
 C         2.4249607149       -3.4688009889        0.7987547821
 O        -0.6803133410       -4.5868123584        0.9850307561
 O         2.5317785830       -4.1749404854        3.1049736849
 C         1.6153080658       -6.5677375409        3.1647504053
 C         1.6552250062       -6.6281792236        0.6267001003
 C         2.8398865008       -2.0734744063        1.1738776067
 C         1.7287040083       -1.2588153187        1.8833560548
 C         1.9548253617       -0.2731496907        3.0734244367
 C         0.5731524675        0.3840930794        3.6077545001
 C         0.2901342059        0.9033828069        5.1227222754
 C         2.8210646040       -0.9505634290        4.1736423239
 C         2.7214299531        1.0054229157        2.6025366333
 O         0.5832483355       -1.4442318073        1.4974199158
 O        -0.2890922931        0.5583532117        2.7727692458
 C        -1.0460214442        1.4381333372        5.1950861351
 C        -2.3737667028        0.6417103629        4.8857917435
 C        -3.6771744074        1.3600710728        4.1737384694
 C        -3.4750394404        1.5049727445        2.5922646469
 C        -3.2515384683        2.8585518428        1.9108269581
 O        -2.6060797684       -0.5084286927        5.1778766005
 O        -3.4731979401        0.5256278336        1.8914464939
 C        -4.9494485794        0.5432284316        4.4434885437
 C        -3.6844459331        2.8139615430        4.8282710284
 C        -2.8991450964        2.6401693257        0.3869766353
 C        -2.2416705881        3.9371387065       -0.2781031611
 C        -2.9632892032        5.2415426380       -0.7419088712
 C        -2.4263683486        6.3401003769        0.3300959050
 C        -1.1693015111        7.1902074052       -0.0539307976
 C        -2.6856790675        5.5702503043       -2.2018136010
 C        -4.4864549276        5.0580974328       -0.5624356009
 O        -1.0116815425        3.9558806038       -0.3639778904
 O        -3.1019643969        6.5498372675        1.3230484938
 C        -0.4422788489        7.7126615532        1.1732519773
 C         0.6433018987        8.7094759506        0.7721658800
 C         1.4229184289        9.3969650337        1.8605913498
 C         2.7982461282        8.6768861416        2.0010372125
 C         3.7358984128        8.8245573627        0.9079998842
 O         1.0075574212        8.8061559501       -0.3893611077
 O         2.9942813484        7.9616352672        2.9471933308
 C         1.6406593280       10.9408373181        1.4648240646
 C         0.7650566802        9.3625794527        3.2358954202
 H         5.6547046373       -4.2827370365       -5.9211351163
 H         6.0764499650       -4.9515612923       -7.6111546129
 H         6.7682700060       -3.3979196350       -6.9883867158
 H         2.3699392563       -3.0794170688       -7.4282897938
 H         2.4444807928       -3.3029625999       -5.5949883490
 H         5.9826182416       -0.9381166350       -6.4329710735
 H         5.4278890128        0.0650454057       -7.7258948813
 H         6.4615521693       -1.2138624940       -8.0185604287
 H         3.1090893619       -2.1196009798       -9.2804554560
 H         2.9445412120       -0.4664339374       -8.7279846636
 H         4.3006393052       -0.9005497871       -9.5965218432
 H         0.8120586854       -1.1576609742       -5.7574143023
 H         0.3435682997       -2.2281918366       -7.2454062804
 H        -1.0333742037       -3.0593198820       -1.9910365796
 H        -2.4408016453       -2.1432481162       -2.6124464427
 H        -2.1713577766       -1.1797391011       -4.3952948451
 H        -3.0905039060       -1.9024737335       -5.7378487835
 H        -1.5278663687       -1.1712720137       -5.9991225605
 H        -1.4483721195       -5.0473370469       -6.1712882388
 H        -2.7675663500       -4.0512412392       -6.7363273956
 H        -1.2626011044       -3.4815949640       -7.2241402338
 H        -2.5005233859       -4.8461552676       -1.3652270305
 H        -3.9161334367       -3.8194866488       -2.0474200398
 H        -3.3033816399       -6.2693319521        3.0999119817
 H        -3.0891346467       -6.4409186964        1.3623044446
 H        -5.3974290770       -2.6569478876        0.6466988221
 H        -4.1121999303       -2.0419746542        1.7871292450
 H        -5.3648612146       -3.2194024508        2.2949101756
 H        -5.5405732086       -4.7840534516       -0.0209409381
 H        -4.2772505191       -5.9613430706       -0.0567315577
 H        -5.1718452158       -5.5369839153        1.4686844291
 H        -1.0617932715       -6.3349435814        3.6655842792
 H        -1.0738692690       -7.4131269674        2.2927289805
 H         3.2199397170       -3.9713920010        0.2495727109
 H         1.6469019810       -3.4867729069        0.0872733623
 H         1.3292836234       -6.0487777886        4.0600939222
 H         2.6633301068       -6.8068231723        3.1374260723
 H         1.1514717797       -7.5449612927        3.0879624566
 H         1.4864332103       -6.1952150369       -0.3807530702
 H         2.6357483479       -7.0567476472        0.6544491596
 H         0.9976483391       -7.4798062026        0.5442755453
 H         3.0172085344       -1.6535328771        0.1673411886
 H         3.7176204462       -2.0077122666        1.7744131253
 H         0.4492075245       -0.0080670715        5.8002601882
 H         1.1269140579        1.5742491686        5.2844751870
 H         2.6422033414       -2.0444648569        4.2629651949
 H         2.5757541180       -0.5563209709        5.1913734933
 H         3.8316516903       -0.8837567985        3.8443903045
 H         2.1871640896        1.4431378892        1.7739912393
 H         2.8023846825        1.7293114079        3.3794266932
 H         3.6534629786        0.7632965813        2.0720730369
 H        -1.3580012360        1.8985511053        6.1392031397
 H        -1.0786396651        2.4395772217        4.5759533048
 H        -3.9667179783        3.5331983898        2.0600271290
 H        -2.3785696894        3.4525790370        2.4659151379
 H        -5.3761648730        0.2123686149        3.5038858851
 H        -5.7997182377        0.9543501924        4.9956848514
 H        -4.6104929588       -0.3773504275        4.8899052283
 H        -3.5831822543        2.7375468624        5.9202918448
 H        -2.8151528342        3.4504876077        4.5963637421
 H        -4.5676402304        3.4957195135        4.5700265276
 H        -3.8441393286        2.4027274729       -0.1067335085
 H        -2.1714427017        1.7620079843        0.3372079415
 H        -0.5139529175        6.6420003572       -0.6517581954
 H        -1.6154633583        8.0064273982       -0.7747748177
 H        -3.3771681833        4.9552021575       -2.6926996911
 H        -1.7133293042        5.2621750665       -2.5605199451
 H        -2.9688926093        6.6638159013       -2.4370683963
 H        -4.9166623089        5.0222337532        0.4870152496
 H        -4.9399155111        5.9937349392       -0.9220076060
 H        -5.0900217884        4.2623464000       -1.0450839741
 H        -1.2849815428        8.1820189719        1.8456692706
 H        -0.0602917907        7.0021860673        1.9310447902
 H         3.2521437376        8.6941803741       -0.0810725689
 H         3.9864812499        9.8422321750        0.7957367519
 H         4.5256020726        8.1487206664        1.0219821787
 H         2.4700840441       11.4798138607        1.9723614819
 H         0.7085547744       11.4500935975        1.5240455622
 H         1.8702916171       10.9087249665        0.4314108677
 H        -0.2620576613        9.5832533546        3.2229681485
 H         0.7367368476        8.3637846597        3.7041988670
 H         1.2436664572        9.9850616244        4.0504452948
 Na       -1.8634478635       -1.1443052752        1.8499477770
