155

 C         5.5625590308       -3.8598698434       -6.8901245847
 C         4.5854147307       -3.3275550672       -7.9134079157
 C         4.2010034326       -1.8003710161       -7.8271773237
 C         3.2583641433       -1.6240450999       -6.5944765075
 C         2.0352815124       -2.6068353439       -6.4322841858
 C         5.5079678931       -1.0501640617       -7.4800058692
 C         3.5203192484       -1.2734700942       -9.1064750085
 O         4.0090881236       -4.0944491134       -8.7135074978
 O         3.4550592745       -0.8586292559       -5.6768285119
 C         0.7436772879       -1.9253318943       -5.8588303583
 C        -0.0747232330       -3.0909204456       -5.3018910563
 C        -1.7549820582       -3.2072166974       -5.3007637408
 C        -1.9616717440       -3.9540875063       -3.8625687044
 C        -1.8612505398       -3.1193823923       -2.4928057334
 O         0.3996051435       -3.9420273628       -4.5948606531
 O        -2.0699362973       -5.1162092569       -3.9165133575
 C        -2.3912472046       -1.8276250935       -5.3100444214
 C        -2.3068317047       -4.0197485964       -6.4530854220
 C        -2.9072720378       -3.9629641733       -1.5549306173
 C        -3.0166227412       -3.2607140156       -0.1743971898
 C        -3.7994257018       -3.9140749713        0.9706332951
 C        -2.7728368030       -4.4169466581        2.1214931208
 C        -2.6439061531       -5.8806896856        2.5961368352
 C        -4.8478463849       -2.9839921824        1.7142368619
 C        -4.6631169925       -5.0527340418        0.3235463536
 O        -2.4093064476       -2.2341697633        0.0090822113
 O        -2.3320578222       -3.5479427405        2.8540335139
 C        -1.1529758469       -6.4135732324        2.5734193621
 C        -0.1597483055       -5.5263609852        1.7784163541
 C         1.4646530717       -5.8050738940        1.8721389713
 C         2.0878553379       -4.3727772141        2.0262067526
 C         2.5131805145       -3.4396567983        0.8011137042
 O        -0.5672712662       -4.7131306428        1.0345238336
 O         2.2333346605       -3.9578094043        3.1497878124
 C         1.8005785919       -6.6948503367        3.1051848465
 C         1.7779963811       -6.6472952445        0.5537842700
 C         2.8124746000       -1.9760847178        1.3198667280
 C         1.5757349121       -1.1920168608        1.8197193629
 C         1.7910216437       -0.1139460282        2.9236431491
 C         0.4276053605        0.4084248574        3.4880162688
 C         0.2443481486        0.6761675552        5.0920085205
 C         2.6728535955       -0.7552471884        4.0228273541
 C         2.5959439584        1.0810292575        2.4165577345
 O         0.4373881013       -1.3902360380        1.4392899332
 O        -0.5321880731        0.6392510091        2.7798513928
 C        -1.0478822775        1.5027851785        5.2778416360
 C        -2.2845433393        0.6201304506        4.8770106339
 C        -3.5136035097        1.3773184262        4.2199226253
 C        -3.3225171843        1.4016268233        2.6847373923
 C        -3.0566972428        2.6988416331        1.9632306652
 O        -2.3152646335       -0.5508696172        5.2045106326
 O        -3.4225387854        0.3112366815        2.0956170916
 C        -4.9317753438        0.7597357111        4.4350448324
 C        -3.7038493803        2.8095992733        4.7767867715
 C        -2.7422489381        2.7094140836        0.4619354259
 C        -2.0444582021        3.9776505894       -0.1919503195
 C        -2.9391231619        5.2054875774       -0.5114328406
 C        -2.4204281227        6.3819917567        0.4189051016
 C        -1.1140688329        7.0935365630       -0.0226756012
 C        -2.5818720651        5.5620560329       -2.0650319506
 C        -4.4255530296        5.0584731618       -0.3645733153
 O        -0.8761928476        3.9633547773       -0.4649795851
 O        -3.0688949819        6.6734809849        1.3764346845
 C        -0.6415255552        7.9287425282        1.1743675362
 C         0.5718585904        8.7974672324        0.8062007738
 C         1.5073439236        9.3881970128        1.9344622135
 C         2.8908013955        8.5787759403        1.8580201110
 C         3.7847009421        8.7716667222        0.6309880873
 O         0.8634083074        8.9404301476       -0.3616240380
 O         3.3037370344        7.7651201937        2.6718653033
 C         1.8974367027       10.8315756927        1.5209395120
 C         0.9105724589        9.4611351638        3.3392273626
 H         5.7538601753       -3.1260277606       -6.1954005767
 H         5.1544106182       -4.7748181712       -6.3880818492
 H         6.5140023364       -4.1094964292       -7.3302431646
 H         1.8646513203       -2.9597666073       -7.4716058206
 H         2.4401729916       -3.4029626869       -5.8172664848
 H         5.7833609493       -1.3190200615       -6.4075686519
 H         5.5190644984        0.0880989811       -7.5116950832
 H         6.3260453795       -1.4831265843       -8.0445676872
 H         2.6387467387       -1.7958379752       -9.4642831152
 H         3.2641546902       -0.1816690439       -9.0406897581
 H         4.2550368209       -1.2582225458       -9.9582502880
 H         1.0606758698       -1.2619422491       -5.0492657440
 H         0.2804278821       -1.4509737870       -6.6873382335
 H        -0.8753176163       -3.1666406968       -1.9949219994
 H        -2.1514632019       -2.0822089713       -2.6120277045
 H        -1.6205796196       -1.0849211948       -4.9882611481
 H        -3.3175942963       -1.8457455671       -4.7118692646
 H        -2.6271917007       -1.5290386297       -6.3290214563
 H        -1.7480122169       -4.9923407399       -6.4646176420
 H        -3.3902771818       -4.1939164632       -6.3148395082
 H        -2.2557695929       -3.4936170683       -7.3850314591
 H        -2.4167530451       -4.9603345860       -1.5090045001
 H        -3.8424580291       -3.9310102564       -2.0523745568
 H        -3.0426465380       -5.9240334858        3.6196851917
 H        -3.3459977030       -6.4972757518        2.0162810322
 H        -5.6807091312       -2.7282184367        1.0521993003
 H        -4.2467502699       -2.2128075552        2.1378817073
 H        -5.3737076642       -3.6023112352        2.5383161035
 H        -5.3250676024       -4.6321998503       -0.4386652622
 H        -3.9540652509       -5.7204410939       -0.2328425343
 H        -5.2122985724       -5.5790604434        1.1413200879
 H        -0.6904016681       -6.4693689720        3.5650618313
 H        -1.0938510211       -7.4696646102        2.1616615400
 H         3.4539659283       -3.8407415084        0.3865280197
 H         1.8025572469       -3.5489550779       -0.0611791565
 H         1.3172117253       -6.2421364613        4.0098955798
 H         2.8833156431       -6.8228072208        3.2933659902
 H         1.5540369402       -7.7478320082        2.8674257741
 H         1.4852145382       -6.3420359284       -0.4078050718
 H         2.8771212554       -6.8993188618        0.5171738631
 H         1.2627790167       -7.6516613865        0.5889586865
 H         3.2540260532       -1.4120712680        0.4799497896
 H         3.5737860775       -2.0051466894        2.1522989341
 H         0.1239770022       -0.2765549839        5.5558413480
 H         1.1705945462        1.1482697330        5.5490855645
 H         2.4250603405       -1.7960049786        4.1832459897
 H         2.5023680956       -0.2096940777        4.9088707463
 H         3.7238486769       -0.7915203562        3.7277911176
 H         2.0664967450        1.7356393359        1.7128627079
 H         2.8880582226        1.6434692192        3.3005540815
 H         3.4484299153        0.7743685121        1.8628979841
 H        -1.3210511636        1.8100362302        6.3118116478
 H        -1.0063282765        2.4187350391        4.8149846283
 H        -4.0367943312        3.3833962413        2.1648717663
 H        -2.3762862723        3.2719111266        2.4462553427
 H        -5.6783647201        0.9872099521        3.6240861421
 H        -5.3501090172        1.1714737338        5.4004257431
 H        -4.9633844197       -0.3771160854        4.5990554794
 H        -3.7978983456        2.8135271942        5.8660638152
 H        -2.8901931548        3.4428954351        4.6303522082
 H        -4.5536129470        3.2179172974        4.3465913993
 H        -3.6713747409        2.4185813947       -0.0729974574
 H        -2.0492239287        1.9289434438        0.3215889917
 H        -0.2815847821        6.3768924446       -0.2759067597
 H        -1.3873130940        7.5529499297       -0.8887807379
 H        -3.0718534651        4.8813334503       -2.7806903290
 H        -1.5166037924        5.4754864017       -2.2065255756
 H        -2.8561705995        6.5447794343       -2.2283068633
 H        -4.7047413547        4.4672166232        0.4197908783
 H        -5.0588173873        5.9078410280       -0.2095084653
 H        -4.8051948364        4.5186826317       -1.1941129751
 H        -1.4714915000        8.3504355710        1.5655028746
 H        -0.2797894132        7.3142078660        1.9769674872
 H         3.3137780554        8.9327462388       -0.3211348776
 H         4.3296045859        9.7455796767        0.6734268108
 H         4.4145416700        7.8541263953        0.6282204050
 H         2.6987983766       11.1552042676        2.1484581644
 H         1.0388658924       11.5111881883        1.6804403146
 H         2.1099359192       10.9427358703        0.4195331977
 H         0.0043591525       10.0743019894        3.4995330615
 H         0.4741970939        8.4939147541        3.6211340911
 H         1.6481851818        9.6187422187        4.0962937283
 Na       -1.8232569537       -1.3500518902        1.9952301488
