155

 C         4.9021094714       -3.8935191615       -6.6692832715
 C         4.3056410840       -3.3896496984       -7.9380415419
 C         3.7774107644       -1.8665929457       -8.0084068821
 C         2.8237021444       -1.7080252357       -6.8862344911
 C         1.4965954416       -2.4028715777       -7.0453242599
 C         5.0220240268       -0.9797905860       -7.8360505907
 C         3.2429761042       -1.6118890057       -9.3876312522
 O         4.2776462567       -4.0271633393       -8.9762798124
 O         3.1404019441       -1.1389986912       -5.8833611499
 C         0.5034000867       -1.9061311515       -5.9826088512
 C        -0.1657884055       -3.1259675045       -5.2101883547
 C        -1.7975671746       -3.1011990857       -5.1507166266
 C        -2.3143303365       -3.8946959311       -3.7972294580
 C        -2.1307151243       -3.1190800765       -2.5552424874
 O         0.4587277519       -4.1509800889       -4.9444755945
 O        -2.7341693042       -4.9862561819       -3.8848491741
 C        -2.3347545766       -1.6588898833       -5.1586221627
 C        -2.1647291188       -3.7714424846       -6.5869378784
 C        -2.7341949714       -3.9882022011       -1.3740408206
 C        -2.7368679320       -3.4133651684        0.0291131359
 C        -3.6458589858       -4.0890621240        1.1455332291
 C        -2.6167035890       -4.4185267163        2.3326158369
 C        -2.2763439227       -5.8932102236        2.5208716413
 C        -4.5994259899       -2.8845977278        1.5149190383
 C        -4.5056514155       -5.2653431489        0.6518186820
 O        -2.1933749634       -2.3311465502        0.2347529862
 O        -2.0308718365       -3.5203070364        2.9507859257
 C        -0.8613670730       -5.9506747038        2.9703488843
 C        -0.0072961541       -5.6199761261        1.6766175903
 C         1.5230558794       -5.7035708149        1.8262960560
 C         1.9434955912       -4.1861165087        2.1635839243
 C         2.4476084595       -3.4057099129        0.9025164697
 O        -0.6087404293       -5.4395882420        0.6481720029
 O         1.7316783555       -3.7602329239        3.2286114032
 C         2.0176561202       -6.7721654679        2.9535235186
 C         2.0908755741       -6.2725869221        0.5279858501
 C         2.4098776140       -1.9241173064        1.1264945681
 C         1.3209316475       -1.2996258021        1.9659638301
 C         1.7204140379       -0.1253057168        2.8679538950
 C         0.4205524520        0.5183884014        3.5584907370
 C         0.3860860701        0.6936076204        5.0555113563
 C         2.8119192666       -0.6104900089        3.8645089303
 C         2.2897785717        0.9813223218        1.9064962899
 O         0.1429242513       -1.5164895676        1.6601583704
 O        -0.5270020889        0.9372808517        2.9171863220
 C        -0.9567693725        1.4207659057        5.4223715315
 C        -2.1865288804        0.7036868540        4.8530816750
 C        -3.6071945375        1.5354461780        4.3061978952
 C        -3.2335466240        1.5266110683        2.7074917941
 C        -2.5986918322        2.7787616172        2.1765313403
 O        -2.1869305209       -0.4567819769        4.4983546657
 O        -3.4202859186        0.5411917487        1.9527128338
 C        -4.9109321866        0.6958661943        4.4610784705
 C        -3.6012860555        2.9722755233        4.9913490877
 C        -2.4282664717        2.7169869966        0.6747832250
 C        -1.8313092783        3.9867625097        0.0435406226
 C        -2.7651517835        5.1677607774       -0.3539765587
 C        -2.2757778258        6.2538820713        0.6664907125
 C        -0.8717549697        6.8725614949        0.4006291670
 C        -2.6072327995        5.5165712402       -1.8139917187
 C        -4.2832350993        4.8816363959       -0.0118156227
 O        -0.6305197517        3.9703585104       -0.2131646191
 O        -2.9776905964        6.5617275768        1.5716466804
 C        -0.6100329566        8.1167221904        1.4414320089
 C         0.5867696556        8.9213481534        0.8908138988
 C         1.7966763046        9.2993464079        1.8037154700
 C         3.0114797932        8.3262664375        1.4118538007
 C         3.8395520729        8.5589496442        0.1623926928
 O         0.6495920127        9.2475248076       -0.2551901636
 O         3.2107487610        7.4217327971        2.1734205696
 C         2.1649206908       10.7479579473        1.5401689143
 C         1.4009563762        9.3035688419        3.3116863589
 H         5.9368010972       -3.5433903175       -6.6746830317
 H         4.4811506586       -3.5041065813       -5.6511766672
 H         4.9128605560       -4.9866201263       -6.7575501314
 H         1.1554902584       -2.3675222604       -8.1472446908
 H         1.7541464108       -3.4647627486       -6.9442479694
 H         5.6458469219       -1.2941109768       -7.1004851872
 H         4.7629068532        0.0426584421       -7.4642465006
 H         5.5574576474       -1.1124683738       -8.7779303107
 H         2.3826934649       -2.2771552220       -9.7856812929
 H         2.9159491397       -0.5230248506       -9.4916004427
 H         4.0186968936       -1.7016658525      -10.1015756854
 H         1.0868537792       -1.3407078063       -5.1415083027
 H        -0.2578610851       -1.2523552739       -6.4528921930
 H        -1.0292876714       -2.8479332144       -2.4450195428
 H        -2.8464114889       -2.2829874870       -2.6252528025
 H        -2.2053670798       -1.2991542383       -4.1191198680
 H        -3.3771568068       -1.6688425962       -5.3918204235
 H        -1.8135358105       -1.0720975404       -5.8305490445
 H        -1.8385206652       -4.8414066061       -6.6004868598
 H        -3.1743846877       -3.5633334643       -6.8914076915
 H        -1.4275840116       -3.4023689307       -7.2482487141
 H        -2.0644213037       -4.8850484820       -1.3187206600
 H        -3.7253447294       -4.2613114033       -1.7078666075
 H        -3.0311484782       -6.4576582259        3.1962854996
 H        -2.4436559518       -6.2788500556        1.4598831493
 H        -5.1456591264       -2.7629495891        0.6349702125
 H        -3.9373456727       -2.0335959759        1.7574723787
 H        -5.3789079115       -3.1503467161        2.2714044276
 H        -5.3612806669       -4.6850216304        0.2697341276
 H        -4.1135973094       -5.9426681352       -0.0854954444
 H        -4.7202575819       -5.8330766176        1.5226295010
 H        -0.6882545501       -5.0941280618        3.6834151309
 H        -0.6383364383       -6.9798955662        3.4369775658
 H         3.4658817073       -3.7686616384        0.8072787318
 H         1.9457088049       -3.7045820745       -0.0244167436
 H         1.6996115479       -6.5076001719        3.9749605977
 H         3.0875606116       -6.8788787845        3.0434051143
 H         1.6580349899       -7.7619124157        2.7023786801
 H         1.6894664915       -5.9060063872       -0.3585584176
 H         3.1858811852       -6.1004778519        0.3220838750
 H         1.8852250224       -7.4094476992        0.4661800914
 H         2.1904245846       -1.3301672666        0.2435252376
 H         3.4137140106       -1.4633666519        1.3574512876
 H         0.4739508775       -0.2736899072        5.5422464934
 H         1.2393476669        1.2786057824        5.5501055069
 H         2.3471886593       -1.2683918678        4.6228735116
 H         3.3911197368        0.2386535524        4.1909393074
 H         3.5707633985       -1.2611502230        3.4044093699
 H         1.6515761537        1.0546071668        0.9807017865
 H         2.3242946154        1.9645184537        2.3171810696
 H         3.3264848033        0.8142399939        1.6865179612
 H        -0.9814461911        1.2613115199        6.5616700435
 H        -0.9943476353        2.4588752850        5.2758957593
 H        -3.2739651467        3.7063365753        2.4598653829
 H        -1.6741207641        2.9824631157        2.6202596368
 H        -5.6465685187        1.4120286308        4.7964308091
 H        -4.8814596564       -0.1225608284        5.1983880766
 H        -5.3870768790        0.3983499886        3.5188653558
 H        -3.5773699660        2.8820291443        6.1253523140
 H        -2.8335518519        3.5268555499        4.6578277585
 H        -4.5180247215        3.4879710570        4.7650572857
 H        -3.4346520720        2.3890287959        0.2884801585
 H        -1.8133554878        1.8846429754        0.4212302434
 H        -0.0153808848        6.1715880738        0.4924077660
 H        -0.8540403584        7.2055663338       -0.5791031484
 H        -3.2137198421        4.8966667870       -2.4518515338
 H        -1.5563606330        5.4714400062       -2.0116061748
 H        -2.8462237690        6.5637607317       -1.9650926486
 H        -4.6467961903        4.6967326763        0.9569619844
 H        -4.9474350250        5.7303484917       -0.3516603705
 H        -4.6661149149        4.0786597292       -0.6573232895
 H        -1.4015866202        8.7561452800        1.4687950843
 H        -0.2989225225        7.8396542968        2.3900359786
 H         3.2422561820        8.7625718301       -0.7171733754
 H         4.4622566877        9.4647124397        0.2175354844
 H         4.4530414862        7.6898829468        0.0232682121
 H         2.9562946542       10.9716036909        2.1833025217
 H         1.3709457374       11.2889981568        2.0532049649
 H         2.2118230679       11.1073879417        0.5247332721
 H         0.4185700216        9.6574304557        3.5537692606
 H         1.4683688841        8.3755536016        3.9398491307
 H         2.1190020500       10.0461390012        3.8180382920
 Na       -1.9206597867       -1.2577124427        2.4541925955
