155

 C         4.4589324759       -3.8315659055       -6.7710480455
 C         4.0384409463       -3.5201910286       -8.1907350812
 C         3.3360249645       -2.1764939142       -8.3996194342
 C         2.2733865141       -1.8499834172       -7.2235839425
 C         1.1939321077       -2.8471630762       -6.8626585756
 C         4.4154514285       -1.0957628428       -8.3227543781
 C         2.4942317810       -2.1406536259       -9.7426622920
 O         4.2775602408       -4.2317701070       -9.1475442937
 O         2.3241973731       -0.7833631986       -6.5915344584
 C        -0.1218991766       -2.1006162562       -6.3283303614
 C        -0.7537058527       -2.8127277589       -5.1123979427
 C        -2.2528281792       -2.7696305496       -4.8887664782
 C        -2.6899641252       -3.6064055193       -3.6548727430
 C        -1.8159424939       -3.5710538323       -2.3524192902
 O        -0.0944048596       -3.7060585920       -4.6336943287
 O        -3.7139533810       -4.3733716827       -3.7181778830
 C        -2.7015656510       -1.2133339780       -4.8856497450
 C        -2.8458448660       -3.4003209601       -6.1965384347
 C        -2.4274261725       -4.3226027196       -1.2290520100
 C        -2.8489106822       -3.5450625134       -0.0132569953
 C        -3.6977685358       -4.3591152337        1.0862659192
 C        -2.6455692202       -4.4681899461        2.2949009797
 C        -2.0150482678       -5.7507034734        2.8816837988
 C        -4.8543562592       -3.5193459620        1.7411116057
 C        -4.1699611861       -5.7553721871        0.5517877646
 O        -2.4197310844       -2.4241878480        0.1502615502
 O        -2.3234863742       -3.4023497071        2.7923822707
 C        -0.5148467038       -5.6882125823        3.1382088724
 C         0.2402507172       -6.1344091214        1.9351919184
 C         1.7853384380       -5.7153122237        1.7888989879
 C         2.0584238245       -4.1720610543        1.8744938513
 C         2.0247217354       -3.3194300696        0.5830007346
 O        -0.3711930897       -6.6328812888        0.9144717160
 O         2.2551688330       -3.6686285683        2.9706375275
 C         2.7608020066       -6.3560357461        2.8949699190
 C         2.2657883095       -6.2198669291        0.4249521740
 C         2.3891635316       -1.8113167224        0.8839070240
 C         1.3507218974       -1.0053963567        1.7517691366
 C         1.9094024794        0.0843136193        2.8892181250
 C         0.5666798000        0.6269132920        3.6511170337
 C         0.6007249187        0.6959902658        5.1946696601
 C         3.0995152846       -0.3907263401        3.7606751155
 C         2.2679573581        1.2914664969        1.9306837990
 O         0.1702486438       -1.1107585853        1.4720500732
 O        -0.3567020253        0.9807090346        2.9506363314
 C        -0.8550636042        1.2717537119        5.7749320906
 C        -2.0776636570        0.6057366305        4.9893368413
 C        -3.2120384177        1.5303157031        4.5441332068
 C        -3.0167915830        1.6916600111        2.9182774671
 C        -2.6905301734        2.9558773066        2.2746214402
 O        -2.2038501511       -0.5606394544        4.8086209374
 O        -3.1860391582        0.7016130086        2.2209392378
 C        -4.5295531674        0.8197561117        4.6681682591
 C        -3.2606987552        2.9291426144        5.2019747346
 C        -2.4367575535        2.7375241723        0.7796008375
 C        -1.7047363055        3.9850882832        0.0497978306
 C        -2.4338298174        5.3354491766       -0.2433636035
 C        -2.0044980385        6.3637559158        0.8939156771
 C        -1.1475201993        7.5881994087        0.5857127509
 C        -2.1438388204        5.8028375790       -1.6010300996
 C        -4.0462071300        5.1975306251       -0.0474428499
 O        -0.5533707595        3.8467103252       -0.3733679261
 O        -2.2792486788        6.0258240628        2.0461393500
 C        -0.0867038263        7.9063141784        1.6664554342
 C         0.7586650817        9.0073013886        1.1247238737
 C         2.2269577677        9.1408652740        1.6614197638
 C         3.0557973841        7.9914590127        0.8796433119
 C         3.6842886693        8.2908046757       -0.4660625514
 O         0.2666021224        9.9401169740        0.5035252255
 O         3.1075453102        6.9168181874        1.4801834619
 C         2.7517790185       10.5150548059        1.4146684019
 C         2.2998585950        8.9968328845        3.1843027921
 H         3.6946763801       -4.5667740623       -6.3470432680
 H         5.3985259286       -4.2734203449       -6.7165973534
 H         4.4751296500       -2.9426380196       -6.1693817657
 H         0.9121882945       -3.6219840584       -7.6006695098
 H         1.6747135338       -3.4574649315       -6.1499980165
 H         5.0697090296       -1.3773109527       -7.4735817887
 H         3.9751475268       -0.1913196401       -8.3038017829
 H         4.9045425059       -1.0522735979       -9.2277108023
 H         1.5657807319       -2.6750327271       -9.6598889035
 H         2.2662120561       -1.1539739939       -9.9825651260
 H         3.0809402584       -2.6050425011      -10.5220131521
 H         0.2606920714       -1.1322081998       -6.0337215623
 H        -0.8557276603       -1.7966636800       -7.0061596874
 H        -0.8880107366       -4.0998432146       -2.6817323747
 H        -1.4098097743       -2.5730112223       -2.2151169953
 H        -2.2752906998       -0.6795600227       -3.9821060390
 H        -3.8068425740       -1.0487926829       -4.9797636862
 H        -2.1302821196       -0.7353510335       -5.6998932137
 H        -2.5589386237       -4.4517501854       -6.1832172685
 H        -3.9114081680       -3.3593802837       -6.2707546680
 H        -2.3998963798       -2.8263673671       -7.0122087059
 H        -1.8947831111       -5.2350166774       -0.8984310082
 H        -3.3104866389       -4.8100024989       -1.6102248769
 H        -2.4492777405       -5.8739777456        3.9097287692
 H        -2.3615145597       -6.6293300304        2.3138561165
 H        -5.5366379053       -3.2871847004        0.9235036705
 H        -4.4484489969       -2.5556396004        2.0386675993
 H        -5.2324462282       -4.0938190089        2.5419892511
 H        -4.8827266633       -5.5933712629       -0.3217281814
 H        -3.4381106296       -6.4863527357        0.2615470407
 H        -4.8390314155       -6.0450599264        1.3274830005
 H        -0.1142098801       -4.7557509157        3.4576310574
 H        -0.3487663059       -6.4313038287        3.8852073965
 H         2.7969246170       -3.6101171430       -0.0928456398
 H         1.0231815567       -3.3669076897        0.1480645025
 H         2.3554650877       -6.1900645823        3.9229266756
 H         3.7709277878       -5.9736574426        2.7409495063
 H         2.7453539994       -7.4675503660        2.8920727341
 H         1.6193361416       -5.7928083759       -0.4030252044
 H         3.2532423029       -6.1342018562        0.1655156552
 H         2.0739845327       -7.2366381979        0.3725783624
 H         2.4627762509       -1.2674105184       -0.0339148532
 H         3.3668388625       -1.7880181663        1.4068467742
 H         0.8656618594       -0.2729578387        5.6338667442
 H         1.3288875193        1.4242788223        5.6891066194
 H         2.8616105820       -1.3121998374        4.2801276688
 H         3.2634741882        0.3320512062        4.5476913386
 H         3.8892386485       -0.6115195449        3.1034196515
 H         1.4160166083        1.3956128331        1.2276437955
 H         2.2979939751        2.1895683310        2.5043575854
 H         3.1405332108        1.1365505820        1.2553854828
 H        -0.9211169540        0.9085242352        6.8374894382
 H        -0.7128212103        2.3637890245        5.6867278889
 H        -3.3873127880        3.6486133490        2.3543376514
 H        -1.6641697310        3.2927644295        2.7405383817
 H        -5.3158019930        1.5405454760        4.4662678508
 H        -4.7241685469        0.6926592646        5.7574511489
 H        -4.6221397659       -0.1854461389        4.2671048954
 H        -3.3063549212        2.8163028489        6.2695076956
 H        -2.2730011214        3.4755349069        4.9184368760
 H        -4.2163457198        3.4471227133        4.8522497437
 H        -3.4512629190        2.5594834815        0.3787393437
 H        -1.7957824713        1.8512823278        0.6733215294
 H        -0.6597289606        7.2906825457       -0.3272505917
 H        -1.8783490257        8.4255438560        0.4590312786
 H        -2.6181739211        5.1846291776       -2.2977505888
 H        -1.1016854263        5.5539920998       -1.8163168169
 H        -2.3708001998        6.8891074614       -1.8880388854
 H        -4.3547197895        5.3820383606        1.0180864719
 H        -4.4330883764        6.0305276791       -0.6110298287
 H        -4.4332962329        4.2478012396       -0.4366164145
 H        -0.5765151077        8.0998959170        2.6873616862
 H         0.5632052104        7.0197453655        1.7293300289
 H         2.9514979265        8.3357547865       -1.3157596142
 H         4.3577934653        9.1353496488       -0.3847373473
 H         4.3793729806        7.5445171568       -0.8181536748
 H         3.8565967084       10.5152587029        1.3823957259
 H         2.3762264030       11.0815127814        2.2861413479
 H         2.4006522070       11.0226403921        0.5251132306
 H         1.8236557313        9.7876451554        3.6988838629
 H         2.0889958296        8.0590263679        3.6669859272
 H         3.3966354574        9.0681305853        3.4114406343
 Na       -2.0515897051       -1.1031693348        2.1382208382
