155

 C         4.3906476706       -3.5107506966       -6.8327340074
 C         3.7081629580       -3.6047428080       -8.1745438313
 C         3.0007790045       -2.1944418636       -8.5454398662
 C         2.0055338461       -1.8068605936       -7.4033831733
 C         1.0761634078       -2.8628414395       -6.9170214992
 C         4.0805734954       -1.1049666367       -8.7189624878
 C         2.1599631614       -2.3682120802       -9.8256665643
 O         3.6376255908       -4.5378943362       -8.9773009473
 O         1.9921667842       -0.6418364669       -6.9580662153
 C        -0.3616659349       -2.3939428476       -6.5629489989
 C        -0.8865605912       -3.0922671371       -5.2112301977
 C        -2.4945938933       -2.7480610389       -4.7858502601
 C        -2.9445486697       -3.4278539557       -3.5002472541
 C        -2.0394986517       -3.4509079711       -2.2203824061
 O        -0.1044048511       -3.6313430896       -4.5241371230
 O        -4.1431501896       -3.8482736866       -3.4470473578
 C        -2.3048059862       -1.2865586008       -4.3618709213
 C        -3.3040308657       -3.0731907865       -6.0591818384
 C        -2.4928907089       -4.3830596450       -1.1154299240
 C        -2.8932132885       -3.6513994112        0.1535901113
 C        -3.4022619765       -4.4738683460        1.3240860947
 C        -2.4175176478       -4.5263676084        2.4519146385
 C        -1.8815418206       -5.8230770470        3.1773720601
 C        -4.6207599501       -3.6472453232        1.8921692537
 C        -3.8597134675       -5.9020632615        1.0252337813
 O        -2.5476634681       -2.4695781556        0.2337860990
 O        -1.8330865651       -3.4905338725        2.8276872046
 C        -0.3312192066       -5.7634899228        3.1186112059
 C         0.4073655666       -6.0031990111        1.7298406162
 C         1.9187613571       -5.7256800216        1.7453310723
 C         2.1028244039       -4.1415953699        1.8977632291
 C         1.9182792610       -3.2560561648        0.6915435073
 O        -0.2391456336       -6.1809013849        0.6451176864
 O         2.5229027624       -3.6856507048        2.9603372170
 C         2.4568726571       -6.4149849164        2.9957292732
 C         2.5196206200       -6.0734648632        0.3560091889
 C         2.4864167208       -1.8030871573        0.8076162487
 C         1.4619344501       -0.9632004968        1.5589369392
 C         1.7358130882       -0.0229701200        2.7224526470
 C         0.4217418393        0.3752677937        3.4855920668
 C         0.5427516010        0.4815862167        4.9906512986
 C         2.8737090235       -0.5808227857        3.5211811624
 C         2.1998542043        1.2979321399        2.0329129371
 O         0.2816269120       -1.0779059940        1.1721788340
 O        -0.4670321343        0.9035778373        2.8283679674
 C        -0.7387492833        1.1949919140        5.5552909351
 C        -1.9882120530        0.6556769306        4.7443134073
 C        -3.0760998867        1.6593146609        4.5045066252
 C        -3.1124608556        1.7517494113        2.8954296543
 C        -2.5800834751        2.9302788504        2.1681925840
 O        -2.0306001005       -0.4919701105        4.4574630538
 O        -3.6052527891        0.7934912522        2.2645927531
 C        -4.4036219063        0.9537675394        5.0882724257
 C        -2.7571132944        3.0912657311        5.2960757621
 C        -2.5242327881        2.7702945846        0.6468202865
 C        -1.8225939574        3.9894127712       -0.0823503263
 C        -2.5473241380        5.4184931374       -0.2003249636
 C        -1.7731974300        6.2703604871        0.9600106681
 C        -1.0132936365        7.6146598898        0.5999533465
 C        -2.1899316217        5.8685408379       -1.6995562687
 C        -4.0191008512        5.4471738662        0.1390849995
 O        -0.6923373533        3.9202262423       -0.3677340205
 O        -1.6795615336        5.8400189294        2.0820823406
 C         0.1543083355        7.8238201441        1.5370379543
 C         0.9306737849        9.1458180953        1.4218153147
 C         2.5582824285        9.0949114662        1.6793819325
 C         3.1436150896        7.8921420973        0.7929258714
 C         3.4864554040        8.1955474281       -0.6822872118
 O         0.3622632684       10.1984304109        1.1724129560
 O         2.9978359088        6.6964847117        1.0850560460
 C         3.1665113717       10.5452632039        1.3809000525
 C         2.6451540580        8.8468668536        3.2313362585
 H         3.7737247374       -2.8795924246       -6.1824368642
 H         4.5980223745       -4.3898967217       -6.3419135233
 H         5.3535315529       -3.1204960451       -7.0379496153
 H         0.8775718213       -3.6115189763       -7.7300709461
 H         1.3820907089       -3.4595658835       -6.0762395942
 H         4.4202301639       -0.7584983751       -7.6563849110
 H         3.5802836705       -0.3366485133       -9.2606305325
 H         4.9128141259       -1.4129439428       -9.3473517925
 H         1.9199983130       -3.3747830661       -9.8425150410
 H         1.2486122781       -1.7895059937       -9.7615781593
 H         2.6892306804       -1.9591696152      -10.7618114821
 H        -0.4106649039       -1.3280602649       -6.4543917388
 H        -1.1006204329       -2.5995314999       -7.2731095637
 H        -1.1245478707       -3.7822995905       -2.6670463239
 H        -1.7671708748       -2.5041887298       -1.8765163450
 H        -1.4602306082       -1.1168427467       -3.7323788593
 H        -3.2486983059       -0.8586226838       -4.0112160485
 H        -2.0462126805       -0.6183182247       -5.2211495037
 H        -3.0686973780       -4.0537285043       -6.4362588331
 H        -4.3802553101       -3.0851146089       -5.8993931271
 H        -3.1926558065       -2.1864251906       -6.7279316283
 H        -1.9376784713       -5.3217871569       -0.8984869081
 H        -3.4213883838       -4.8738497986       -1.3722591346
 H        -2.2354155625       -5.7249767514        4.1631437351
 H        -2.2865679410       -6.7463712962        2.8602304370
 H        -5.3792005617       -3.7248303259        1.0116553643
 H        -4.2601258413       -2.7010502217        2.1737689881
 H        -5.0596325825       -4.1524729910        2.7349318693
 H        -4.5780005337       -6.0749717321        0.1746871749
 H        -2.9359576569       -6.5054784546        0.8193003211
 H        -4.2937805720       -6.3617535033        1.9210299160
 H         0.0694886686       -4.8742708555        3.5366131730
 H         0.0646111719       -6.5330356730        3.6982931430
 H         2.4230625097       -3.6940494751       -0.1972513849
 H         0.8299824871       -3.1109482803        0.4925789052
 H         2.5335520644       -5.6051615228        3.7602841728
 H         3.4539900317       -6.8599467146        2.8451586038
 H         1.8835127049       -7.3181786010        3.3371816367
 H         2.1062036540       -5.4417576224       -0.5079883612
 H         3.5826568032       -6.0170165247        0.3447379686
 H         2.2916888113       -7.0491266689        0.0595928343
 H         2.4805573443       -1.3240983929       -0.1366698119
 H         3.4569079779       -1.8349499926        1.3278933540
 H         0.5535968707       -0.4352655192        5.5427517293
 H         1.4520526229        1.1025520125        5.1776612130
 H         2.6744897951       -1.4832859496        4.0789637446
 H         3.4421240710        0.1638261791        4.1526716163
 H         3.5882418178       -0.8851634298        2.7771472851
 H         1.3951751313        1.7559143948        1.5225973011
 H         2.6524715478        1.9265176790        2.7596113899
 H         2.8309529919        1.0511313163        1.1612888921
 H        -1.0095758573        1.0484175604        6.6132431495
 H        -0.5940844663        2.3056982559        5.4027466296
 H        -3.1474498249        3.7452408911        2.2876961658
 H        -1.4976430649        3.1533845063        2.5505642820
 H        -5.3604629758        1.5800715122        5.0065604090
 H        -4.2946404124        0.6177376081        6.1703473957
 H        -4.5900853897        0.0838933859        4.4187070316
 H        -2.4064970036        3.0515109804        6.2870388988
 H        -2.0546376593        3.6997493695        4.5869734659
 H        -3.6964027804        3.6665408094        5.1581051422
 H        -3.5695556812        2.8129096872        0.3448656285
 H        -2.0875092319        1.8016794783        0.4570273491
 H        -0.9100902455        7.6494550521       -0.4408645718
 H        -1.8527382612        8.3889514346        0.8398621558
 H        -2.9528801820        5.4506413887       -2.2735258089
 H        -1.2469096828        5.6285102165       -2.1625081489
 H        -2.3079508105        6.9585946443       -1.8571906211
 H        -4.2009478920        4.8801889673        1.0573057509
 H        -4.0996363128        6.4209176673        0.4624323941
 H        -4.6508760689        5.2801479935       -0.6779697867
 H        -0.3104501516        7.7003440077        2.6113475408
 H         0.8056054390        6.8768931721        1.5404420773
 H         2.7839693078        7.6604680402       -1.4033908896
 H         3.6079626055        9.2414151421       -0.9670238103
 H         4.4307371046        7.7044929088       -0.9823050339
 H         4.2396433113       10.5866919628        1.6238328526
 H         2.6938526040       11.2994712271        1.9984043712
 H         2.9606510763       10.7780181282        0.3638922134
 H         1.9706937712        9.5069915860        3.8301368728
 H         2.3333245742        7.8491768076        3.4988395365
 H         3.6628263568        9.0186474732        3.5618580785
 Na       -2.0229273914       -1.3206217303        2.2883397050
