155

 C         4.4892302021       -3.2844006922       -8.4590918721
 C         2.9766900942       -3.3770659233       -8.0160253105
 C         1.8796182467       -2.6797755181       -8.8301991223
 C         0.6068754201       -2.1881930414       -7.9490991296
 C        -0.4373748190       -3.2033333588       -7.3564441488
 C         2.5196006588       -1.4085451395       -9.3581642428
 C         1.3184045827       -3.7563907141       -9.7827638588
 O         2.6581492912       -4.0725622851       -7.0541774195
 O         0.5247173572       -0.9772469822       -7.7409036994
 C        -1.4623774721       -2.5228232471       -6.5047891131
 C        -1.4746797329       -2.8590426931       -5.0261296506
 C        -2.4776478504       -2.0650767873       -4.1953086470
 C        -2.9277150499       -3.0136238864       -3.0226461012
 C        -2.2877058301       -3.0213730399       -1.6088781651
 O        -0.6972098849       -3.6639718878       -4.4938746157
 O        -3.7589459433       -3.8426261025       -3.2135062476
 C        -1.7757374943       -0.8137082760       -3.7178184557
 C        -3.7644855107       -1.7063167089       -4.9867578620
 C        -2.9884798447       -3.9556710950       -0.5706283992
 C        -2.8242288776       -3.4995725079        0.8521386252
 C        -3.3486076455       -4.3404332830        2.0143515187
 C        -2.0324690391       -4.4374494742        2.9417449684
 C        -1.4259610630       -5.6902726031        3.3381516934
 C        -4.4660685093       -3.6184802256        2.8392284906
 C        -3.8034823293       -5.7622728412        1.5680901823
 O        -2.5015408331       -2.3474700032        1.0664567140
 O        -1.6085859715       -3.3732545829        3.3686053027
 C         0.0061939405       -6.0865248022        2.9781315754
 C         0.5926572017       -5.6730904427        1.6330284622
 C         2.1526592800       -5.7390312847        1.3763649760
 C         2.5773265938       -4.2693942950        1.2896968106
 C         2.2401571878       -3.3050121006        0.0809452637
 O        -0.0696710685       -5.3025367531        0.7327909573
 O         3.2786540334       -3.8355918502        2.2003012050
 C         3.0347288257       -6.5043018379        2.3635822870
 C         2.4100090662       -6.5074999147        0.0591656170
 C         2.7149649083       -1.9074096077        0.4485981438
 C         1.6815757845       -1.1802432898        1.3506796765
 C         2.1858909996        0.0754285826        2.1944099712
 C         0.9133243129        0.4407199662        3.1734508236
 C         0.6192039637        0.0200350311        4.6562009413
 C         3.4856204675       -0.2873211996        3.1342855292
 C         2.5415815991        1.2722370481        1.2763977521
 O         0.4912124657       -1.3365371162        1.2113246366
 O         0.0032527476        1.0824196249        2.6225099416
 C        -0.5329668640        0.9102072814        5.1013687248
 C        -1.9748226321        0.4791628700        4.6017972249
 C        -2.9794759661        1.5507749238        4.1271948969
 C        -2.8916399056        1.7899272962        2.6206800788
 C        -3.1658871484        3.2038967472        2.0305504569
 O        -2.2221772681       -0.6627997476        4.7387664081
 O        -2.7169515856        0.8196525893        1.8456631009
 C        -4.4256315099        0.9914877293        4.2800546164
 C        -2.7572028000        2.7736579114        5.1024564879
 C        -3.2240534872        3.2341675870        0.4549926210
 C        -2.3132326025        4.3086701317       -0.1542438734
 C        -2.3533502316        5.7981906517        0.1483470430
 C        -1.3619460546        6.1290122329        1.3963975067
 C         0.1187213121        6.3333237220        1.0040949606
 C        -2.0770904824        6.7493081118       -0.9766592429
 C        -3.7820738219        6.2156518078        0.6749750117
 O        -1.4602612861        3.9618393487       -1.0185433978
 O        -1.7261759023        5.9293129949        2.5621685060
 C         0.8604455727        7.0670760538        2.1090681198
 C         1.4091293231        8.4849847475        1.6275836838
 C         2.9233371315        8.7476505244        1.6439738317
 C         3.3395722902        7.9364614183        0.3637458324
 C         3.2384103641        8.5725432917       -0.9517190609
 O         0.5869646037        9.3260289292        1.2893399560
 O         3.4544106621        6.7389438641        0.5538638522
 C         3.2614999705       10.2926033478        1.5176948824
 C         3.6028935768        8.0465129638        2.8868721324
 H         4.8156432471       -2.2441173817       -8.4295872303
 H         5.0899004956       -3.8719581692       -7.7388837150
 H         4.7020776504       -3.5734487318       -9.5225336362
 H        -0.9089422859       -3.6754308601       -8.2348378357
 H        -0.0040051391       -4.0204310364       -6.8132718108
 H         2.9233693701       -0.8773552745       -8.4405211784
 H         1.8020030466       -0.8705847811      -10.0217976345
 H         3.2948921044       -1.5274594504      -10.1162826254
 H         0.3914673308       -4.2211171004       -9.3647002582
 H         1.0716575287       -3.2960103372      -10.7207411953
 H         1.9924285633       -4.4707973215       -9.9970132334
 H        -1.3328506797       -1.4317210028       -6.6677648519
 H        -2.3332406879       -2.9213747078       -6.9880331981
 H        -1.3781269564       -3.6073130722       -1.9029248547
 H        -2.0523044685       -2.1052293169       -0.9822695502
 H        -0.7354034106       -1.0335044471       -3.4343908988
 H        -2.2361524369       -0.2124402971       -2.8994076969
 H        -1.6287471066       -0.1324361520       -4.6169672436
 H        -4.3464489741       -2.5555016072       -5.3302284665
 H        -4.4406872957       -1.1621596115       -4.3058573476
 H        -3.6320081331       -1.0883515526       -5.8976137670
 H        -2.4636538742       -4.9029745093       -0.6434428227
 H        -4.0821308453       -4.0344062476       -0.6969148540
 H        -1.4865471685       -5.6038411553        4.4595605214
 H        -2.0936676319       -6.5177977704        2.9526688170
 H        -5.2179487658       -3.2468335404        2.2600637921
 H        -4.0726067337       -2.7202270301        3.3425968760
 H        -4.8192388388       -4.3559673890        3.5623213344
 H        -4.6555458626       -5.7201683698        0.9603594386
 H        -3.1169410757       -6.2983108588        0.8859917901
 H        -4.1555655391       -6.5074460876        2.3056253536
 H         0.7309575476       -5.7059273336        3.8184594558
 H         0.0802755955       -7.2078695756        3.0023696973
 H         2.7229944464       -3.6035548395       -0.8421207084
 H         1.2292225335       -3.3398850060       -0.3032117466
 H         3.0953335709       -6.0792390789        3.3670876421
 H         3.9589863848       -6.6351127651        1.7656443544
 H         2.6241743544       -7.5453704873        2.4386598045
 H         1.9383460381       -5.9881518396       -0.7056981317
 H         3.4862186611       -6.5436650538        0.1068900261
 H         2.1147158787       -7.5630545716        0.0894762172
 H         2.9004102882       -1.2564883694       -0.4213414118
 H         3.6415680353       -1.8879211760        1.0109092712
 H         0.3269618025       -1.0644342535        4.6815837424
 H         1.4537928624        0.0800209670        5.2740873748
 H         3.4067211140       -1.2130533097        3.6708002978
 H         3.5210422144        0.4167749707        3.9218874990
 H         4.3816414222       -0.4369316524        2.5656656031
 H         1.9865109710        1.2361680930        0.3516821604
 H         2.2329915875        2.2051364566        1.8130142411
 H         3.6035454756        1.2790619586        1.0924255703
 H        -0.7625188526        0.8758120443        6.1338901049
 H        -0.2565647856        1.9691606928        4.8992007032
 H        -4.0342847621        3.6866758973        2.6012695455
 H        -2.4526050680        3.8215291611        2.3328548682
 H        -5.2509778990        1.7454184865        4.2036459390
 H        -4.5461167090        0.5602592658        5.2925949829
 H        -4.4399678477        0.0844248402        3.6242158105
 H        -2.5662775975        2.4066355986        6.1259064037
 H        -2.0669871357        3.5537745482        4.8780537156
 H        -3.7389235529        3.2163748958        5.1860227842
 H        -4.2619859992        3.6378448260        0.2029441114
 H        -3.1837270446        2.2647953284       -0.0388199901
 H         0.6158217548        5.4357605521        0.8333250020
 H         0.2561505854        6.9154091345        0.0457598379
 H        -2.8739463026        6.9106895962       -1.7613634300
 H        -1.2482332622        6.3201015445       -1.5628185577
 H        -1.6990810948        7.6596359888       -0.6486492680
 H        -3.9133422769        5.6852670814        1.5796449620
 H        -3.8136527368        7.2960738849        1.0110311530
 H        -4.5238841390        5.8811760760       -0.0473494980
 H         0.0049625536        7.3315049568        2.7572329525
 H         1.5091234360        6.3958938237        2.6815391297
 H         3.5542734504        7.9011556053       -1.7251890302
 H         2.2647201047        8.9886562500       -1.3007171907
 H         3.9259158989        9.4380349601       -1.0165185206
 H         4.3383829189       10.4694391483        1.5042539359
 H         2.8000687692       10.8704939001        2.3016147894
 H         2.8916577305       10.6500358581        0.5523860205
 H         3.2469280707        8.6064951826        3.7820683935
 H         3.3262779115        6.9673338060        2.8689806452
 H         4.6731520200        8.1325053344        2.8293010526
 Na       -1.6205102781       -1.0638588210        2.5171402465
