155

 C         3.7708255468       -3.7062740420       -8.4864477309
 C         2.4511710997       -3.2187503545       -7.8265059298
 C         1.2040704402       -2.9760590967       -8.8948743687
 C        -0.0083362389       -2.4838016563       -7.9789047360
 C        -0.7168875742       -3.5369766321       -7.1003240295
 C         1.5235054601       -1.9932578372      -10.0438953970
 C         0.8047898853       -4.2452994722       -9.6857725171
 O         2.5001992546       -2.9044107680       -6.6463766508
 O        -0.3607278865       -1.3289900683       -8.0571992027
 C        -1.9147996459       -2.9408061468       -6.4212760378
 C        -1.6293798913       -2.6820712523       -4.9816231980
 C        -2.5112446602       -1.8765974436       -4.1102469285
 C        -3.0537356927       -2.9063258789       -2.8723686367
 C        -2.1116336277       -3.4337779795       -1.7975433291
 O        -0.6293763068       -3.1911278953       -4.4281688689
 O        -4.0715026003       -3.4822975433       -3.0151310471
 C        -1.7944786774       -0.6027312344       -3.4412463836
 C        -3.8324873601       -1.3878357105       -4.7211529783
 C        -2.8492857504       -4.3808359905       -0.7934713055
 C        -3.0230760859       -3.5804712706        0.5622688257
 C        -3.2565690481       -4.4485944879        1.9896678971
 C        -1.8027719266       -4.4927318604        2.7164416584
 C        -1.1498318045       -5.8255569565        3.3261516628
 C        -4.1639291941       -3.7486065692        2.9824995836
 C        -3.9736496562       -5.7999256692        1.6997624489
 O        -3.0069969861       -2.3663467192        0.6017520867
 O        -1.2599536114       -3.4337962575        2.8688189080
 C         0.2722611597       -6.0966815057        3.0195998744
 C         0.7612641517       -5.5648517721        1.7083295131
 C         2.1484169335       -5.7303148750        1.0793740796
 C         2.8104299513       -4.3082860076        1.1930116453
 C         2.4306054809       -3.2175702364        0.0975665050
 O        -0.0946315152       -4.9582486201        0.9782418722
 O         3.5213122662       -4.0622845901        2.0786815086
 C         3.0246536136       -6.8347420825        1.7833743392
 C         1.9229832228       -6.0856756604       -0.4328098911
 C         2.7801956390       -1.8070215367        0.5067835478
 C         1.6965936784       -1.1727359733        1.5623456704
 C         2.2306878989        0.1421288721        2.3283865399
 C         1.0533006475        0.8948000012        2.9723862481
 C         0.9730880637        0.9988745660        4.6057537289
 C         3.2886911210       -0.4555044159        3.3008301124
 C         2.7119591917        1.1923470952        1.3208369628
 O         0.6359729538       -1.6718050294        1.7476436188
 O         0.2365403596        1.4453474222        2.2911605491
 C        -0.2139370193        1.6983504645        5.0829344056
 C        -1.4053098327        0.9225786138        4.6110172254
 C        -2.8144541360        1.7269552422        4.2292197815
 C        -2.7665601907        1.9139976915        2.6890341486
 C        -3.2468679027        3.3015430066        2.1275017249
 O        -1.4052709458       -0.3422574339        4.4131259945
 O        -2.4537400754        0.9102984893        2.0087465122
 C        -4.0408094856        0.8476529461        4.5478165485
 C        -2.8434127254        3.0772734976        4.9897455166
 C        -3.2031030675        3.3092989577        0.6197047948
 C        -2.3389897444        4.3452726414        0.0249045247
 C        -2.5566484224        5.8788896671        0.5617849805
 C        -1.2981374428        6.1150236809        1.5170772365
 C         0.0582035534        6.0376074662        0.8320616750
 C        -2.3292094361        6.8819800137       -0.6103035630
 C        -3.8957477093        6.0219069802        1.2695255885
 O        -1.5070814048        4.1272706937       -0.8171290904
 O        -1.4081363186        6.2411607489        2.7141528038
 C         1.2554014229        6.4726987577        1.6538471777
 C         1.5242997088        7.9544243151        1.6688314425
 C         3.0270726870        8.4485921948        1.5453076407
 C         3.6475734905        7.8086582702        0.2187461663
 C         3.6253233432        8.6319120619       -0.9857998277
 O         0.6680765989        8.7755505628        1.7939470828
 O         4.1164300175        6.6974662056        0.2968242034
 C         3.1228017676        9.9538813481        1.6652286515
 C         3.8940735809        7.9386230955        2.7044267848
 H         4.4106130228       -2.9348361944       -8.8296503171
 H         4.3481663305       -4.3504191359       -7.7172430838
 H         3.4948978439       -4.3946102688       -9.3446761305
 H        -0.9287451011       -4.3291942027       -7.8389749128
 H        -0.0250254097       -4.0811296873       -6.4014496657
 H         1.6385479293       -0.9768096613       -9.7702454716
 H         0.6669225288       -1.8376785049      -10.8028816511
 H         2.4376782003       -2.3622655116      -10.6125527887
 H         1.1032252543       -5.1910390396       -9.1933564996
 H        -0.2820251366       -4.3243443587       -9.7972174128
 H         1.1999271361       -4.2821499074      -10.7292074351
 H        -2.2222801095       -1.9983725201       -6.9880051858
 H        -2.7620645113       -3.6714662182       -6.6258813312
 H        -1.2749849686       -4.0091479923       -2.2375777888
 H        -1.6632110117       -2.5915582116       -1.2797091778
 H        -0.9317487891       -0.8318993457       -2.8169068020
 H        -2.6550661135       -0.1744453269       -2.8922684878
 H        -1.5744484865        0.2950099212       -4.0736506388
 H        -4.4495422551       -2.2456397683       -4.8453428509
 H        -4.3621810850       -0.5856750195       -4.2314727500
 H        -3.6905395726       -0.8613513866       -5.7029628437
 H        -2.1296933606       -5.2240777244       -0.5842129701
 H        -3.7656503992       -4.6635043870       -1.3717736949
 H        -1.2237692268       -5.6750160794        4.3775726123
 H        -1.7270461186       -6.6949587745        3.0722128748
 H        -5.1900531541       -3.8521107186        2.5205685212
 H        -4.0005327221       -2.6895888233        3.0037757497
 H        -4.2659535720       -4.1301031741        3.9825710118
 H        -4.9743396085       -5.6874740763        1.2409804230
 H        -3.4585763656       -6.6083764709        1.1784093984
 H        -4.1848791123       -6.2820028136        2.6291367358
 H         0.9422074921       -5.9383234810        3.9108869060
 H         0.2779252739       -7.1829017426        2.7454720320
 H         3.0529875264       -3.4441739677       -0.8102012301
 H         1.3677930030       -3.2649241246       -0.2634606482
 H         3.3300164099       -6.5043106205        2.7808113726
 H         3.9795897082       -6.9407433864        1.2385296476
 H         2.3859617728       -7.7128249780        1.8287304170
 H         1.3235656544       -5.2999709199       -0.7963374765
 H         2.9045487506       -5.8648213737       -0.9306881593
 H         1.4746563966       -7.0917056656       -0.4774548864
 H         2.7971903796       -1.0256177974       -0.2514311056
 H         3.7930972020       -1.9041031812        0.9722642954
 H         0.9061045299        0.0391624638        4.9510888558
 H         1.8938855529        1.3948202046        5.1126701817
 H         3.0321706103       -1.4413115365        3.6226930519
 H         3.7004627115        0.1742502833        4.0919680780
 H         4.1704505236       -0.4439309125        2.6879928039
 H         1.9754580886        1.3860965613        0.5824501918
 H         2.9561517616        2.0444692664        1.9351805109
 H         3.6227632462        0.8676018718        0.7394222063
 H        -0.2483086044        1.5890556270        6.1823758779
 H        -0.3258797035        2.7128663983        4.7539022570
 H        -4.2378003629        3.6414368451        2.5342629110
 H        -2.5211458873        3.9811212566        2.5917734223
 H        -4.8611829138        1.1085060714        3.8255821960
 H        -4.3303834727        1.0247356504        5.5930455296
 H        -3.8288662973       -0.2173706184        4.3544163960
 H        -2.4070310512        2.9740693155        6.0424183335
 H        -2.2630707881        3.7550934930        4.5145336487
 H        -3.7745920618        3.5118817180        5.0978811560
 H        -4.1774700405        3.5119510477        0.1712754193
 H        -2.8216424604        2.3230991138        0.3377291933
 H         0.2116661614        4.9353505370        0.6343650060
 H         0.0991664426        6.6745345879       -0.0000534849
 H        -3.2713476387        6.9367997334       -1.0910105727
 H        -1.6037848057        6.6441329588       -1.4102527323
 H        -2.2815520672        7.9570107829       -0.3639451199
 H        -3.7325339431        5.8523887908        2.3933093297
 H        -4.2392320744        7.0345319036        1.0922962586
 H        -4.7269851824        5.4580538192        0.7544282506
 H         1.1119202305        6.0211045053        2.6826436956
 H         2.2629956612        5.9287726972        1.3538445132
 H         3.8085642371        8.0457247103       -1.8963959691
 H         2.6440729808        9.0725467010       -1.0552880664
 H         4.2002429103        9.5414149225       -0.9722187886
 H         4.1600998878       10.3069267633        1.6853210826
 H         2.6995725583       10.3156167745        2.5988193881
 H         2.5193713767       10.4139368911        0.9042597650
 H         3.5768971198        8.5112356416        3.6687599932
 H         3.6761547179        6.8746593586        2.7724777703
 H         4.9150713940        8.2123085530        2.4589108734
 Na       -1.7217276260       -1.2356531803        2.2570216284
