155

 C         3.5772197953       -3.8496641306       -8.5883477578
 C         2.3137919401       -3.1287958164       -7.9895533343
 C         0.9703705174       -3.0996943262       -8.9255514982
 C        -0.2698482862       -2.5974006150       -8.0926543561
 C        -0.9208623285       -3.6121798591       -7.0803943276
 C         1.3358896522       -1.9538692262       -9.9007880656
 C         0.7351503144       -4.6217915820       -9.3829486089
 O         2.3080038809       -2.6463298994       -6.9007148803
 O        -0.7628966117       -1.5308073145       -8.3360713397
 C        -2.0086091658       -2.9502153413       -6.2053387508
 C        -1.5629400785       -2.7485971558       -4.7644758620
 C        -2.5737443547       -1.9599604032       -3.9595988674
 C        -3.1112369168       -2.9039130995       -2.7880884736
 C        -2.1711929427       -3.4616528430       -1.8147933269
 O        -0.5129417027       -3.0812194946       -4.3019781340
 O        -4.3104652461       -3.2360411614       -2.7110273607
 C        -1.9451705910       -0.6998652295       -3.2535849369
 C        -3.8171687940       -1.4043793464       -4.7797613600
 C        -2.8388108129       -4.3583678624       -0.7504029408
 C        -2.9310735794       -3.6195204050        0.5979062185
 C        -3.1350629765       -4.4939184007        1.8709642445
 C        -1.7979630816       -4.4715211580        2.7230129856
 C        -1.2607243864       -5.7672869516        3.3069506842
 C        -4.1951004144       -3.6697459933        2.7150501996
 C        -3.5590729401       -5.9664187855        1.6129206845
 O        -2.8573009597       -2.4166283898        0.7537564781
 O        -1.2786055509       -3.4121765686        3.0181628479
 C         0.2127051166       -6.1349019781        2.7249295668
 C         0.5751902707       -5.5415124935        1.3515563327
 C         2.0463386460       -5.6771429708        0.8463773869
 C         2.6525967639       -4.1767689073        1.0775618124
 C         2.2773154009       -3.1315765272        0.0845419446
 O        -0.2487742359       -4.9918737181        0.7386525785
 O         3.5020924596       -4.0001238157        1.9682559877
 C         2.9372200145       -6.6063268780        1.7128320763
 C         2.0595150167       -6.2521958643       -0.6207187220
 C         2.8032473548       -1.7656669312        0.5649064704
 C         1.8323411404       -1.0989367118        1.5662524450
 C         2.4267456786        0.1048079021        2.4187710492
 C         1.2456760189        0.8303293688        3.1185504091
 C         1.2316950678        1.1845702370        4.5939317829
 C         3.5419444587       -0.1891220006        3.4241767970
 C         3.1808053537        0.9967350171        1.2719424303
 O         0.6551636703       -1.4053119921        1.6833088273
 O         0.2953115539        1.0942435496        2.3853133450
 C        -0.0937392493        1.9472293375        4.9599556754
 C        -1.4242769499        0.9929678839        4.5681886980
 C        -2.7832797191        1.7166836906        4.2892632916
 C        -2.8274559284        1.9162180070        2.7001078134
 C        -3.2094072014        3.2585994650        2.1183625939
 O        -1.3301946863       -0.1731708322        4.4620462047
 O        -2.5319172785        0.9798643663        2.0208135671
 C        -3.8266085462        0.7329437396        4.8094860598
 C        -2.9999489760        3.0235578075        5.1000110606
 C        -3.3387871541        3.3062881623        0.5673518562
 C        -2.4029836305        4.4234944037        0.0063681846
 C        -2.4747338542        5.8805611043        0.6170902203
 C        -1.1567887866        6.0761226140        1.4290336231
 C         0.2490865793        5.9149056844        0.7093439091
 C        -2.6520588842        6.8789762332       -0.5287603307
 C        -3.7080367413        6.1131307996        1.5368194193
 O        -1.6358519546        4.1731697328       -0.8726147039
 O        -1.1955112970        6.3054344004        2.5784879468
 C         1.5088465350        6.3393201130        1.6551233788
 C         1.6349772621        7.8472492517        1.7109002118
 C         3.1378153311        8.3710462117        1.6260540887
 C         3.8111287838        7.8675491699        0.3282541718
 C         3.6437904782        8.6739427592       -1.0269422659
 O         0.6556571030        8.5474882493        1.7812817833
 O         4.0637689868        6.6760193024        0.1743390520
 C         3.1374560244        9.9269326372        1.6521154171
 C         3.8815377117        7.7519834843        2.8822660944
 H         4.0266381890       -3.0773331388       -9.2735411844
 H         4.2939839073       -4.0761561055       -7.8767679284
 H         3.3679380477       -4.7112823983       -9.1227484983
 H        -1.2271216171       -4.4524094746       -7.7165417546
 H        -0.2020501348       -4.1081917303       -6.4291023368
 H         1.5179901755       -1.0311345901       -9.3960317971
 H         0.5684515443       -1.6303340368      -10.5031162056
 H         2.2890774797       -2.1951377587      -10.3443286688
 H         0.4034064559       -5.3035786288       -8.6354092094
 H         0.0594239969       -4.8018718595      -10.2534479792
 H         1.7494410218       -5.0214622170       -9.6561751651
 H        -2.2580024740       -1.9428338402       -6.5089883767
 H        -2.9497836915       -3.4785042663       -6.3305253873
 H        -1.4357286186       -3.9806011203       -2.4004246928
 H        -1.5404873968       -2.7428792108       -1.2514853670
 H        -1.3097429612       -1.1115231859       -2.4637944119
 H        -2.6454367186        0.0064392173       -2.8587852553
 H        -1.3397447748       -0.1570808157       -3.9133376759
 H        -4.3427898963       -2.1754045684       -5.4039973464
 H        -4.5859930985       -1.1529290819       -4.0131973484
 H        -3.7162111819       -0.5091259712       -5.3626301974
 H        -2.2236313298       -5.2023765362       -0.5277266220
 H        -3.8370133167       -4.6074113007       -1.1343384239
 H        -1.3457888248       -5.7459344337        4.4173938161
 H        -1.9385345494       -6.5914516478        3.0177953550
 H        -5.0922310504       -3.3691421844        2.1671037494
 H        -3.7243693187       -2.7632544644        3.1604222659
 H        -4.5851877319       -4.2811885903        3.5561766854
 H        -4.3711417206       -5.8595713238        0.8978453912
 H        -2.8599773191       -6.5816985435        1.0726678473
 H        -3.9645558406       -6.6172211515        2.4258041383
 H         0.8953922230       -5.7634937464        3.4126078173
 H         0.4171456613       -7.1746218840        2.6926079781
 H         2.6940410306       -3.4291421319       -0.8819072907
 H         1.1849138249       -3.1093333092        0.0065685156
 H         3.1435029857       -6.0367734273        2.5894567665
 H         3.8922929274       -6.6549590233        1.2570610299
 H         2.5790851009       -7.6054479055        1.8919410435
 H         1.5451210476       -5.4735432210       -1.2774776241
 H         3.0446046373       -6.2746991818       -0.9660246522
 H         1.4922625988       -7.1581834309       -0.5152663477
 H         2.9914308647       -0.9830832323       -0.1787216042
 H         3.6886097262       -1.9273204121        1.1559455011
 H         1.3620141348        0.1327358225        5.1012175102
 H         2.1838738202        1.6867790627        4.7548250104
 H         3.1487090172       -0.7320430396        4.3036755153
 H         3.9296736694        0.7875904378        3.6681541553
 H         4.4834321669       -0.5897272083        3.0505255815
 H         2.6929537984        0.8399155417        0.2650015957
 H         3.2335489599        2.0675099249        1.4980423521
 H         4.1691650338        0.6306007342        1.1753462977
 H        -0.2940533845        2.2618778739        5.9838216569
 H        -0.0816947112        2.7954196081        4.2411339782
 H        -4.1604695048        3.4209345729        2.5155506240
 H        -2.4811163771        4.0644011009        2.5800640391
 H        -4.7274015545        1.2169181835        4.8955736389
 H        -3.4799918380        0.3562441557        5.7398111764
 H        -3.9646826739       -0.0344804359        4.1083249037
 H        -3.2485655189        2.7766367346        6.1014057243
 H        -2.1903867320        3.8485252248        5.0902045101
 H        -4.0102105117        3.4690347666        4.7906602059
 H        -4.3803278375        3.3811969856        0.2722370752
 H        -2.8679939558        2.4065776242        0.1531759013
 H         0.4660298886        4.8759293493        0.5056000706
 H         0.4222284207        6.5874410536       -0.1866531911
 H        -3.6101867677        6.9729189210       -1.0961002883
 H        -1.9014673048        6.6699188213       -1.2500349262
 H        -2.4893305960        7.9002573788       -0.1801350633
 H        -3.4682339453        5.8859311842        2.5525545469
 H        -4.0949224760        7.1336727293        1.3929139582
 H        -4.5218217123        5.5138373219        1.1576691153
 H         1.4990256031        5.8185248972        2.5828055827
 H         2.3563847924        5.9780392159        1.2416999522
 H         4.2226688934        8.1697446193       -1.7724800364
 H         2.6233368211        8.7828319335       -1.3694705416
 H         3.9230571370        9.7150766235       -1.0273702843
 H         4.0488228198       10.2955759471        2.1044695290
 H         2.3641992835       10.2877409685        2.3442433527
 H         2.9005551667       10.4179597758        0.6917810977
 H         3.3905579347        8.0646985550        3.7182226083
 H         3.7432929815        6.6831947138        2.7925118138
 H         4.9303072892        8.0931230684        2.8291940086
 Na       -1.7436089267       -1.0440875044        2.2710064106
