155

 C         3.5002806277       -3.7586481280       -8.5112423569
 C         2.2084934960       -3.0495149385       -7.9671035981
 C         0.8719112828       -3.2585549951       -8.9636784702
 C        -0.3746926776       -2.7828651636       -8.0603110914
 C        -0.9047991637       -3.7264825830       -6.9170869888
 C         1.1124345888       -2.2821650851      -10.1959726474
 C         0.5691173823       -4.6006134603       -9.6523837677
 O         2.0833309466       -2.4846756461       -6.8847058250
 O        -1.0508925786       -1.8370750725       -8.4822113536
 C        -2.0075081264       -3.0308585669       -6.1796297871
 C        -1.6791279546       -2.6606468576       -4.7199662501
 C        -2.7241744382       -1.8174657954       -3.7979136103
 C        -3.3060094723       -2.8085584544       -2.7792103655
 C        -2.2706812659       -3.5412030758       -1.8796343526
 O        -0.6305605695       -2.9901942014       -4.1533799435
 O        -4.4505908493       -3.0404165601       -2.5016276478
 C        -1.9211686175       -0.7159848288       -3.1055106152
 C        -3.9455783404       -1.2995086246       -4.5886919540
 C        -2.7977050705       -4.3660409708       -0.7081015760
 C        -2.7233496114       -3.6177952185        0.6481533026
 C        -3.0412624180       -4.4485644268        1.8684348436
 C        -1.8041156777       -4.4021992344        2.8276259995
 C        -1.1734041493       -5.7505690494        3.2154132158
 C        -4.2648783085       -3.9174440836        2.7232925160
 C        -3.5249211537       -5.8485019735        1.4161054882
 O        -2.4757645881       -2.4015466348        0.6474274130
 O        -1.2975105324       -3.3547425607        3.2491241753
 C         0.2335347601       -5.8837118633        2.7164428049
 C         0.5479291203       -5.6277564191        1.2317583555
 C         2.0104079388       -5.7383199154        0.7561974659
 C         2.5741089973       -4.2188241301        1.0431219882
 C         2.1055918737       -3.1052682721        0.0806119577
 O        -0.3400346929       -5.1001048621        0.4718915101
 O         3.3994040585       -3.9928258769        1.9122916810
 C         2.7491999473       -6.7211239377        1.6876134259
 C         2.1219217712       -6.0889369208       -0.7822866280
 C         2.8437515552       -1.7894308507        0.4148713269
 C         1.9935807910       -0.9733531979        1.5211827290
 C         2.5270760205        0.2036042320        2.4113246740
 C         1.2697369389        0.8601341140        3.0025934805
 C         1.2583666047        1.4164424478        4.5144014858
 C         3.5986224201       -0.3571365164        3.4518312968
 C         3.2155460503        1.2701683434        1.5126067806
 O         0.8375352761       -1.3076298413        1.6606381431
 O         0.2539598277        1.0443700123        2.3070671280
 C        -0.0324365821        2.1214411976        4.8724819715
 C        -1.2454450564        1.1220902372        4.6380139893
 C        -2.7081241994        1.6640061786        4.2989030719
 C        -2.9015607178        1.8103918009        2.7673270640
 C        -3.2817650487        3.2648322585        2.2639196505
 O        -1.0277522327       -0.1004177745        4.5822546766
 O        -2.9033845954        0.8617600992        2.0292886269
 C        -3.7817871141        0.5733136915        4.7442648905
 C        -2.8649257418        2.9585415761        5.0744453792
 C        -3.2987663046        3.4217072942        0.7420694644
 C        -2.5235049961        4.5692289982        0.0929546537
 C        -2.3462520874        6.0113141081        0.6307264496
 C        -1.0552600491        6.0474558559        1.3411044514
 C         0.1933071896        5.8740703637        0.6337726009
 C        -2.5122105747        6.8930743944       -0.5766813141
 C        -3.5599533352        6.4325792640        1.6354768328
 O        -1.8641201946        4.2746992479       -0.9040134809
 O        -0.9986875440        6.1972344659        2.5975278243
 C         1.3735217114        6.2018012916        1.5038431763
 C         1.6254940478        7.7104779606        1.6515290044
 C         3.1497737868        8.2633896828        1.6359898794
 C         3.8055002571        7.8480604995        0.2778420445
 C         3.8176309053        8.7339763938       -0.9000046599
 O         0.7010946781        8.5238007438        1.6425458946
 O         4.1832554242        6.6836622623        0.2315020481
 C         3.0379804303        9.7749997154        1.8014838134
 C         3.9883286796        7.6750804941        2.7856182304
 H         3.7990651995       -3.5100326377       -9.4831237131
 H         4.3537054032       -3.6098724768       -7.8099941088
 H         3.2805186381       -4.8580808291       -8.3690390086
 H        -1.1826513043       -4.6206441937       -7.4492568296
 H        -0.1221506362       -4.0727110406       -6.2597825419
 H         1.4890680075       -1.1793662403      -10.0254538636
 H         0.1340433099       -2.1560275818      -10.7539344746
 H         1.9874588376       -2.6499396988      -10.7203333281
 H         0.5880217586       -5.5141812067       -9.0002098113
 H        -0.3694202866       -4.5596869776      -10.1168801098
 H         1.2605645198       -4.8359834767      -10.3341654413
 H        -2.2707623965       -2.0772680119       -6.6931117893
 H        -2.9980103276       -3.5261109363       -6.2974541296
 H        -1.6254565658       -4.2261036263       -2.5026118539
 H        -1.4783687939       -2.9723464831       -1.4004673605
 H        -0.9939944670       -1.1515943907       -2.7832958602
 H        -2.4416026133       -0.4385904270       -2.1598423227
 H        -1.7247298413        0.1751437031       -3.8179788848
 H        -4.3985872467       -2.0805611669       -5.1498508327
 H        -4.7525710152       -0.9611658838       -3.9461670766
 H        -3.6925325133       -0.5218346775       -5.3649069439
 H        -2.1080198938       -5.2316779122       -0.5859765043
 H        -3.8369000188       -4.6586607870       -0.8268075495
 H        -1.0737658082       -5.6631568007        4.3085064260
 H        -1.7130241767       -6.6965361774        3.1151018410
 H        -5.1011564346       -3.8003594657        2.0954397846
 H        -4.0732091892       -3.0055273993        3.2538226707
 H        -4.5850636735       -4.6201669207        3.4704433130
 H        -4.3494979460       -5.9961804393        0.7188661886
 H        -2.6902924898       -6.4298884593        0.9412695434
 H        -3.7302102423       -6.3723783546        2.3306697690
 H         0.8900353628       -5.1745489226        3.3867186719
 H         0.6094106544       -6.9296837151        3.0220110616
 H         2.4521242553       -3.2995860508       -0.9338803636
 H         1.0342712648       -2.9008981454        0.1150090256
 H         2.6237297197       -6.4461841598        2.7529117207
 H         3.8432525261       -6.8359636918        1.4294176136
 H         2.3686380954       -7.7357987730        1.4097858742
 H         1.4401353352       -5.5493082715       -1.3210830910
 H         3.1486984637       -5.8202876212       -1.1078141307
 H         1.8870725276       -7.1585912808       -0.8963019423
 H         2.8306341587       -1.2210301646       -0.4975639563
 H         3.8662329395       -1.9467219807        0.8007599148
 H         1.3877192706        0.6938023391        5.2327556304
 H         2.1381435762        2.0938668783        4.5737433603
 H         2.9906667541       -0.7760033730        4.2165436603
 H         4.4184007478        0.2944655031        3.8014910276
 H         4.1035610420       -1.2031979647        2.9902582612
 H         2.4912402077        1.9558933396        1.1572731295
 H         3.8956501171        1.8761315988        2.1332380634
 H         3.8378047580        0.8464817444        0.6799038001
 H         0.0747972616        2.4236038541        5.9482977753
 H        -0.2344158481        2.9911009562        4.2351026419
 H        -4.3303153156        3.5896802705        2.6761652819
 H        -2.5729230020        3.8963572274        2.6018271920
 H        -4.8476986599        0.9716893100        4.8258736617
 H        -3.3976596138        0.2526140551        5.7236276073
 H        -3.7530513299       -0.2798740729        4.0171768976
 H        -2.7429760170        2.7670104054        6.1496233155
 H        -2.0681476349        3.5832312447        4.7720698565
 H        -3.7787384227        3.4570498631        5.0430902309
 H        -4.3250998855        3.8003653628        0.4819009334
 H        -3.1266735803        2.5154231816        0.1504400995
 H         0.3554086221        4.8479957458        0.2869443529
 H         0.2482246294        6.5466874480       -0.1842054405
 H        -3.4484478544        6.6691210166       -1.0507499263
 H        -1.7736515832        6.6017771098       -1.3636025140
 H        -2.4365686970        7.9565170410       -0.4687843960
 H        -3.3441416775        5.9331692048        2.5690801615
 H        -3.5595297401        7.5003946151        1.8018227830
 H        -4.5335134512        6.0708050385        1.3506473073
 H         1.2163386970        5.7905760506        2.5225916954
 H         2.2962136039        5.5410988712        1.2172948560
 H         4.0692617977        8.2671328550       -1.8695608160
 H         2.7460293898        9.0424930674       -0.9368978207
 H         4.3350683710        9.7194995583       -0.8592304270
 H         3.9661564283       10.3412711624        1.6332032680
 H         2.7224864777       10.0504226043        2.7907845210
 H         2.2922476365       10.1385108737        1.1212145118
 H         3.2610438183        7.6632094865        3.6495739754
 H         4.2943733288        6.6719580030        2.5259784577
 H         4.8170318662        8.3000898627        2.8604330680
 Na       -1.3351508370       -1.2499164673        2.4381161479
