155

 C         2.2652623056       -3.5483812632       -9.3364221491
 C         0.8683010058       -2.9161952219       -8.9446277446
 C        -0.3702573452       -3.9349593017       -9.0563279770
 C        -1.5339668930       -3.3540392063       -8.2456351155
 C        -1.2895029601       -3.0992032609       -6.6953492183
 C        -0.8643414631       -4.1126313685      -10.5334268376
 C         0.0083302572       -5.3464593193       -8.4505364600
 O         0.8286956030       -1.8827537207       -8.3624221537
 O        -2.6406790980       -3.3659632214       -8.7172143980
 C        -2.5281035345       -2.3868130738       -6.0724753043
 C        -2.0849532470       -1.9834736378       -4.6487785254
 C        -3.1863703177       -1.3026395712       -3.5791427800
 C        -3.4824843368       -2.3940475281       -2.4803596781
 C        -2.3689729218       -3.2768831723       -1.7885429546
 O        -0.9536481852       -2.2661374296       -4.2058617994
 O        -4.6384063112       -2.4833472765       -2.0917673221
 C        -2.4593870185       -0.0618428894       -2.9265060107
 C        -4.5678236735       -1.0220417199       -4.1726081312
 C        -2.9583676216       -3.9600183923       -0.5032055791
 C        -2.7250064083       -3.0907107743        0.8254798310
 C        -2.8988787660       -3.7878926750        2.2487747570
 C        -1.3978661666       -4.0269126907        2.8448256613
 C        -0.8411590092       -5.3710139420        3.3226041605
 C        -3.6952035165       -2.8458410530        3.1953017870
 C        -3.7725879509       -5.0761441380        2.1685560610
 O        -2.3320534170       -1.9791169201        0.7452139317
 O        -0.7831786760       -3.0231227580        3.1218031933
 C         0.6175474480       -5.4971343718        2.7783965400
 C         0.5740690676       -5.3074363974        1.3057264197
 C         1.8344610771       -5.2828333998        0.3975364475
 C         2.4217412018       -3.8887901388        0.7099389862
 C         2.2789635141       -2.7682209704       -0.2952115768
 O        -0.5472423931       -5.0177441578        0.7774993878
 O         3.0323008147       -3.7634146799        1.7832522737
 C         2.8615533965       -6.4530057046        0.7335030774
 C         1.4554898018       -5.3244124253       -1.0717821375
 C         2.9940886095       -1.4895573049        0.1310918820
 C         2.1606726813       -0.6577347494        1.1309683932
 C         2.7950726893        0.1189149482        2.3174463770
 C         1.8439891568        1.2483958214        2.7529124049
 C         1.8633187505        1.8961406998        4.1671275842
 C         3.0423225137       -0.9648385417        3.3794207199
 C         4.0692846393        0.8183864825        1.9705797027
 O         0.9478932878       -0.7550520104        1.0140768855
 O         1.1565270986        1.8069269786        1.9762215484
 C         0.4371048775        2.2029373698        4.4968558832
 C        -0.4508216266        0.9375107521        4.5709929508
 C        -1.9862166757        1.2396702593        4.7963183278
 C        -2.5525207152        1.5736701995        3.3589994093
 C        -2.8888697845        2.9469214337        2.9310159160
 O        -0.0158448973       -0.1270996441        4.1679104703
 O        -2.5342227353        0.6662454790        2.5234069890
 C        -2.6068779913       -0.0698731869        5.2074042886
 C        -2.3765676342        2.4278501732        5.7862852370
 C        -3.3106685204        3.0216117080        1.3990123081
 C        -2.6800937608        4.1582184999        0.4952345664
 C        -2.2504971342        5.5982945901        1.1501797688
 C        -0.7807042239        5.0930134035        1.3739226779
 C         0.2361822467        5.1832375407        0.2850642873
 C        -2.3727863620        6.6307838595       -0.0011635148
 C        -2.9963867356        6.0357399525        2.4370231884
 O        -2.5443885515        3.8338674298       -0.6365812332
 O        -0.4860562285        4.6337043221        2.5103850277
 C         1.6309986715        5.5987132295        0.6794479600
 C         1.8893551327        7.1605211945        0.7460292516
 C         3.2152120462        7.6779417883        1.4670009898
 C         4.4416110833        7.9587840111        0.5151194657
 C         4.6717084178        9.3933029909       -0.1263494640
 O         1.1182036010        7.8674981880        0.1441135016
 O         5.1290781700        6.9955096430        0.2413228552
 C         2.7955184838        8.9435488264        2.1551012726
 C         3.7438262193        6.7190465656        2.5781059302
 H         2.0516687494       -4.2843365951      -10.0725822746
 H         2.9688803216       -2.8700996376       -9.6837582327
 H         2.6284678384       -4.1123398073       -8.4660739154
 H        -1.1479130187       -4.0662449195       -6.3588892936
 H        -0.4075669272       -2.4685322701       -6.5728466043
 H        -0.6487841305       -3.2054226828      -11.2323405426
 H        -2.0061835664       -4.0702006613      -10.4899615108
 H        -0.4179367337       -5.0119402928      -10.9714457639
 H         0.6069435166       -5.2967215572       -7.5087465518
 H        -0.8994613355       -5.8651831899       -8.3011962328
 H         0.6269447603       -5.8885514660       -9.0423119728
 H        -2.6368165525       -1.4444849306       -6.6090286133
 H        -3.3631709485       -3.0858412666       -6.0330791492
 H        -2.1144838668       -4.0670233020       -2.5130837794
 H        -1.5262562452       -2.5404705416       -1.6614565934
 H        -1.4727402285        0.0172708794       -3.2374863432
 H        -2.5761314177       -0.0285942315       -1.8839963365
 H        -3.0943405450        0.7921364028       -3.2714879183
 H        -5.0258589275       -1.9715347826       -4.3528396017
 H        -5.1409094458       -0.4058672998       -3.5073239729
 H        -4.3179292977       -0.4767391155       -5.1135910059
 H        -2.6231482013       -4.9138979713       -0.2574591017
 H        -4.0286291840       -4.1435098271       -0.6448225115
 H        -0.7629490306       -5.2016001510        4.4255399519
 H        -1.4626851865       -6.2677802169        3.1382685798
 H        -4.5944858002       -2.5889255061        2.7191166601
 H        -3.1890959097       -1.8730053885        3.4185345695
 H        -3.9710830060       -3.3184764854        4.1804315981
 H        -4.8318083972       -4.9493042631        1.8469982440
 H        -3.1954545409       -5.6589067873        1.4419893124
 H        -3.6867004304       -5.5147265520        3.1257649882
 H         1.2508525282       -4.6379741493        3.2808378324
 H         1.0941366263       -6.5157192249        3.0743582110
 H         2.6606536273       -3.0931795828       -1.2810981308
 H         1.2473704224       -2.6267995565       -0.5162385672
 H         3.0220858505       -6.5647668500        1.7698294078
 H         3.8316200937       -6.3668391913        0.2876639023
 H         2.4962509829       -7.3943261169        0.3763255516
 H         0.7545043734       -4.6400363569       -1.3845403129
 H         2.2903597678       -5.0167990196       -1.6861215326
 H         1.0570341011       -6.2662729832       -1.3933940216
 H         3.2854770338       -0.8210413590       -0.6997234099
 H         3.9520749701       -1.6972831438        0.5475755026
 H         2.3833184788        1.4368507893        4.9387199731
 H         2.2990777734        2.8750861714        3.9668114276
 H         3.3418075023       -0.3780923448        4.2559888929
 H         3.8018456106       -1.6671900476        2.9667864670
 H         2.2098853034       -1.6683540132        3.6033970845
 H         3.8911305111        1.6280120809        1.2709228636
 H         4.5186482629        1.2101729800        2.8958586170
 H         4.8619122754        0.1265394653        1.5305371431
 H         0.4533303989        2.8420008035        5.4364445456
 H         0.0148313183        2.9006411462        3.7155765261
 H        -3.7075058458        3.5361321551        3.6440961024
 H        -2.0243780305        3.5423507458        3.2080471482
 H        -3.6067012797       -0.1340629595        4.8250548385
 H        -2.5918008325       -0.1662304281        6.2373119349
 H        -2.1215756362       -0.8949720280        4.7769478776
 H        -1.8957494387        2.4092083938        6.6845365904
 H        -2.0616881323        3.4303080598        5.3159349879
 H        -3.4572455961        2.3566502297        5.9973557946
 H        -4.3814469803        3.2209703014        1.3691676403
 H        -3.1959431068        2.1513916456        0.7331037678
 H         0.3102006625        4.1819724782       -0.2012814741
 H        -0.0807397250        5.7776331411       -0.5014104184
 H        -3.4059842258        6.9007564803       -0.1244983491
 H        -1.9962597997        6.1957147533       -0.9767551779
 H        -1.9462269822        7.5752164296        0.3302123621
 H        -2.7004841275        5.4661429195        3.2802626889
 H        -2.8397859049        7.0778775786        2.7224710635
 H        -4.0678737047        6.0124526832        2.2968542325
 H         1.7461870127        5.2857699448        1.7334140052
 H         2.3558013667        5.1057500783       -0.0450806129
 H         4.6295596160        9.2501807471       -1.2004636736
 H         4.0865986346       10.2689584868        0.0986676944
 H         5.6911500709        9.6966291128        0.0760336595
 H         3.5553283136        9.3825296956        2.8022458136
 H         1.9939520823        8.6931273402        2.8830604257
 H         2.3435388184        9.6597191013        1.4914722699
 H         2.8928459866        6.5171142362        3.2556849980
 H         4.0639763337        5.8046057788        2.1709277340
 H         4.5429308600        7.2077970917        2.9952163102
 Na       -0.8782926636       -0.9803226274        2.2618714616
