155

 C         6.5724167763        1.5817895888        6.9324212799
 C         6.6582821195        0.2662511563        6.1874901730
 C         6.3742893108       -1.1583970436        7.0273040631
 C         4.9010169774       -1.7283380304        6.6264845493
 C         4.1657460660       -1.0450102294        5.4295258338
 C         7.3556669131       -2.1975528262        6.4946420109
 C         6.3462062542       -1.0329453364        8.6047060936
 O         6.8840401975        0.1941081075        5.0116048307
 O         4.3259181146       -2.6305767109        7.1857629406
 C         2.9893406256       -1.8868650229        4.9947601712
 C         3.2492636465       -2.8462479544        3.8177926337
 C         2.7202909141       -4.3355620336        3.9565897484
 C         1.1243803086       -4.2817987839        4.0709040636
 C         0.2828312659       -3.4846086518        2.9887066601
 O         3.7957680584       -2.4503566708        2.8494858983
 O         0.6090218908       -4.8338436615        4.9794960613
 C         3.0867672339       -5.1601150967        2.6934648616
 C         3.2670529591       -5.1907076158        5.1473529544
 C        -0.4599585957       -2.3441409307        3.7846596011
 C        -1.1727664726       -1.5286786364        2.7936994750
 C        -2.2201176041       -0.4201073358        3.2169573833
 C        -1.4679444546        0.9474386012        2.9901420791
 C        -0.4495991940        1.3527510580        4.2494754000
 C        -3.4977819185       -0.5185545268        2.2904560974
 C        -2.7130256577       -0.5204373342        4.6933035198
 O        -1.0062160578       -1.5642518093        1.5946749771
 O        -1.5006759050        1.5528857440        1.9871189696
 C         0.2331249914        2.6618028693        3.8767317438
 C         1.7082994681        2.5424515718        3.9940149460
 C         2.6119318769        3.4319299950        2.9806793348
 C         2.4878421832        2.7351759536        1.5777100901
 C         3.3651731594        1.3562596961        1.3342106063
 O         2.3028025907        1.7376160156        4.7536418471
 O         1.7034244975        3.0610161571        0.7294210033
 C         1.9760590181        4.8399136669        2.8573112749
 C         3.9896468822        3.4551240875        3.6067344671
 C         3.3426222961        1.0491545452       -0.1125608017
 C         1.8966996439        1.0590517679       -0.6987255609
 C         1.7696867128        1.0316879337       -2.2864289196
 C         0.2289626494        1.2371570380       -2.6422245152
 C        -0.3543329868        2.5908060276       -3.3318103082
 C         2.7677322235        1.9199566960       -3.1023991327
 C         2.0169291877       -0.4264658950       -2.6837142682
 O         0.9302442454        0.8633747442        0.0265381333
 O        -0.4787288219        0.2674886542       -2.5658032629
 C        -1.9201410393        2.6277918645       -3.3764439280
 C        -2.5022557341        2.7655341012       -1.9742723652
 C        -3.9959624805        2.4749590376       -1.8391595726
 C        -3.8452191747        0.8033017233       -1.9645351516
 C        -4.7087279057        0.1039214465       -3.0056227309
 O        -1.7764152588        2.8571969733       -1.0103915036
 O        -3.1174168807        0.1388886320       -1.2111180308
 C        -4.5803033215        2.7352095396       -0.3816847167
 C        -4.9646989396        3.2420152467       -2.8693648735
 C        -4.4622427741       -1.4667089925       -3.0028655231
 C        -4.8229939920       -2.0785724527       -4.3232953845
 C        -6.2829126968       -2.0987596714       -4.7758092357
 C        -6.4063261826       -0.7382363187       -5.6004004234
 C        -5.9942120730       -0.7599216583       -7.0782780672
 C        -6.4859844763       -3.3297711103       -5.6311343160
 C        -7.4240626313       -2.0102982011       -3.7659046582
 O        -4.0126817214       -2.5484574109       -5.0908050664
 O        -6.7569378199        0.2260040166       -4.9779884153
 C        -4.4292111407       -0.5918135391       -7.2248051579
 C        -3.9925210687       -0.1076767998       -8.5599368095
 C        -2.4114577749        0.3183088762       -8.5832681810
 C        -2.4759004032        1.9322930937       -8.3950629775
 C        -2.6348956486        2.9568461527       -9.5709395911
 O        -4.6614092345        0.0738450748       -9.5436644021
 O        -2.3910057382        2.3090892024       -7.2485317268
 C        -1.5923384040       -0.3344925119       -7.4890590793
 C        -1.9367618603       -0.0539532130       -9.9581744604
 H         5.5682453684        1.7313359266        7.3495652446
 H         7.1499974618        1.5215096084        7.8478158538
 H         6.8150149171        2.4614583097        6.3887112563
 H         3.8535558467       -0.0505979576        5.6318723035
 H         4.9893768727       -0.9723316988        4.6686682346
 H         8.3720528912       -2.0409540257        7.0189614965
 H         7.5419593062       -2.1661607493        5.3756534512
 H         6.9793825364       -3.1751508424        6.7751897866
 H         5.4318910427       -0.7243298431        8.9299689054
 H         6.4940219826       -2.0815302321        8.9909780410
 H         7.0568881737       -0.3258021352        8.9629697173
 H         2.6272597059       -2.5012136008        5.8514961827
 H         2.0635604140       -1.2898692505        4.6571769493
 H         0.9995069351       -3.0351601716        2.3538199956
 H        -0.4338841420       -4.1167020048        2.3846584654
 H         3.9140461892       -4.7249376445        2.1466898025
 H         2.3081955572       -5.0904386902        1.9274317357
 H         3.2511474449       -6.1869156572        2.9186308151
 H         3.3814981786       -4.6403368297        6.0167279819
 H         2.5758568647       -5.9768603884        5.2752368474
 H         4.1524317708       -5.7092428005        4.8610254882
 H         0.3445111737       -1.8782046785        4.2209428827
 H        -1.2451786870       -2.6831596689        4.4742245820
 H        -1.0248419243        1.3941865349        5.1480466284
 H         0.2055935537        0.5459278974        4.3112316165
 H        -4.0778295830        0.2815339825        2.6152545860
 H        -4.0994189193       -1.4144689636        2.3746737235
 H        -3.2938654056       -0.4502334976        1.1958120956
 H        -3.5066132664       -1.2260725587        4.7130530181
 H        -1.9006447601       -0.7432689466        5.3913892760
 H        -3.1674527141        0.3942463540        5.0130830756
 H         0.1390749472        3.1089586866        2.9150961012
 H        -0.2202006126        3.4195978407        4.5248569192
 H         4.3789870961        1.4375545146        1.7018396479
 H         2.9809218436        0.5576502893        2.0237237540
 H         2.1185200502        5.3409955649        3.7601296371
 H         0.9740304093        4.7466337778        2.4598531878
 H         2.4568976034        5.3843432491        2.0257434952
 H         4.7192017892        3.8247855545        2.8541361868
 H         3.9359519677        4.2417705809        4.3900385138
 H         4.3047881926        2.4980731821        4.0180185914
 H         3.8036112084        0.0591667523       -0.3031517219
 H         3.9467207100        1.7703608363       -0.7440074103
 H        -0.0215668667        3.5184146889       -2.9584514007
 H        -0.1409444531        2.3467575576       -4.4032239377
 H         3.8482944998        1.7007184893       -2.9980416187
 H         2.5033603628        2.9615452227       -3.1186169104
 H         2.5662744110        1.6400587683       -4.1119284008
 H         2.9990805324       -0.6737279155       -2.2902858417
 H         1.2366169146       -1.1455204343       -2.3297892690
 H         2.0351093122       -0.6502767109       -3.7086801160
 H        -2.2863426572        3.5017329087       -3.9636979999
 H        -2.3346347906        1.7154434925       -3.8493609746
 H        -5.7445579012        0.3612323792       -2.7048894453
 H        -4.6070658304        0.5523553065       -4.0324061906
 H        -5.4569110833        2.0777594198       -0.2313621189
 H        -5.0256034522        3.7038506955       -0.2520740208
 H        -3.8349681967        2.5970807890        0.4729102382
 H        -5.2206249060        4.4122698180       -2.6948065200
 H        -4.5034064778        3.0963201129       -3.8171478178
 H        -5.8333182968        2.5849644801       -2.8145798493
 H        -5.1154682563       -1.9254561821       -2.2450988068
 H        -3.4314774949       -1.6681142737       -2.8088473698
 H        -6.3515598612       -1.6939936981       -7.5503820183
 H        -6.4957631903        0.1402938719       -7.5921147202
 H        -6.5937622063       -4.2582257137       -5.0574055642
 H        -5.6940033218       -3.5333426507       -6.3854786465
 H        -7.4485358026       -3.3278271265       -6.1843942188
 H        -7.3069476530       -2.8765684598       -3.1440027932
 H        -7.5006513916       -1.0561541800       -3.1761107943
 H        -8.3776571312       -2.1200248193       -4.2492096978
 H        -4.1747756574        0.2688025021       -6.6033123400
 H        -3.8310408730       -1.4151228300       -6.8781769562
 H        -1.9851375039        2.7481503756      -10.3735571146
 H        -3.6621118278        2.8708503115       -9.9819903454
 H        -2.4497515191        3.8925247783       -9.1034154843
 H        -1.9035467457       -1.3799701887       -7.3123161958
 H        -1.8075055567        0.1933793160       -6.5359654304
 H        -0.5476325418       -0.4768009262       -7.6810707743
 H        -2.5083222315        0.4030731665      -10.7711447130
 H        -0.8424939882        0.1532437656      -10.1254184148
 H        -1.8913282849       -1.1995609874      -10.0447444362
 Na       -1.2654225629        0.3566531719       -0.1513325256
