155

 C         1.1501992508       -3.7253785159      -10.2732451858
 C        -0.0115183825       -3.1211694787       -9.5781841839
 C        -1.0164986569       -4.1706972959       -8.8506114825
 C        -2.0021870339       -3.5171429159       -7.8879647736
 C        -1.4368998939       -2.6450519271       -6.6577779953
 C        -1.8568083386       -4.8950449219       -9.9104355067
 C        -0.2688190103       -5.1966900058       -7.9595837859
 O        -0.3974076912       -1.9426506667       -9.6555058303
 O        -3.1848692554       -3.6059016644       -8.1724927081
 C        -2.6500617152       -2.3683710532       -5.7774507829
 C        -2.2280911092       -1.8397357774       -4.3862595652
 C        -3.3602984635       -1.2231047500       -3.4182437825
 C        -3.9886232197       -2.3707597002       -2.5574781966
 C        -2.9878757843       -3.1805563843       -1.7210544987
 O        -1.1585564345       -2.2004181304       -3.9854056366
 O        -5.1730278167       -2.5505600658       -2.6175828789
 C        -2.7237688460       -0.2318081718       -2.4725321712
 C        -4.5464965126       -0.6337087822       -4.2948507550
 C        -3.5763691083       -3.7429387016       -0.5128592024
 C        -2.9271237574       -3.1025085216        0.7707410766
 C        -2.9991948393       -3.7494273151        2.2084419665
 C        -1.5621108861       -4.1570185666        2.5956693856
 C        -1.0255008275       -5.6455821440        2.4387496480
 C        -3.7243229776       -2.6862177979        3.0126787522
 C        -3.9055304621       -4.9701813913        2.2379817729
 O        -2.2146921763       -2.0675976404        0.6694744369
 O        -0.7048071729       -3.3649850551        3.0401230315
 C         0.5246836160       -5.6781976044        2.2458829896
 C         0.7851936842       -5.1033559759        0.8734552065
 C         2.1756234344       -5.2657881249        0.0772288947
 C         2.9640931670       -4.0021154120        0.5107903190
 C         2.4298649574       -2.7354047189       -0.2540477151
 O        -0.1293846251       -4.4358537531        0.2951727395
 O         3.6897238784       -3.9791478890        1.4308913432
 C         2.8964477146       -6.5901667698        0.4702418553
 C         1.8280218367       -5.3281683675       -1.3947845625
 C         3.1378377193       -1.4355473216        0.1977568251
 C         2.2951103470       -0.6515852926        1.2109787296
 C         3.1200727396        0.1019723953        2.3374007829
 C         2.4157654250        1.4569435688        2.6196348248
 C         2.5412721425        2.2116896848        4.0179551229
 C         3.2834398900       -0.9965084442        3.3993067004
 C         4.5294043504        0.5978702000        1.8888313906
 O         1.0930367453       -0.8371593288        1.2691065162
 O         1.8449601873        2.0944671234        1.6819728092
 C         1.1102633416        2.7366687694        4.3282867895
 C         0.0215131773        1.5753407278        4.3443695214
 C        -1.3119471874        1.7410892832        5.0953824630
 C        -2.1886062678        1.9672763559        3.8827509379
 C        -2.9111756942        3.2984418519        3.6990504515
 O         0.1973340639        0.5932299255        3.6979658893
 O        -2.3623397667        1.0412579502        3.0731701467
 C        -1.6328325627        0.3819670162        5.8012548560
 C        -1.4487220958        2.9400850640        6.1403966768
 C        -3.6353934650        3.4453336995        2.2350447046
 C        -2.7087124852        3.9426860283        1.0542178391
 C        -2.1126614323        5.4232443612        0.9402095967
 C        -0.6049988996        5.2650237640        1.3561896858
 C         0.2810887477        4.7764361451        0.2401402999
 C        -2.1746535029        6.0997365170       -0.5261477368
 C        -2.6699178849        6.3528405333        1.9639121851
 O        -2.4073170699        3.1408417277        0.1968586973
 O        -0.3822060856        5.1397007232        2.5724830579
 C         1.7387477087        5.2578422140        0.5364480938
 C         1.8490832501        6.8088123208        0.8481857525
 C         3.1319676645        7.2349598586        1.6187831454
 C         4.3092500451        7.5199026389        0.5663097652
 C         4.2390254693        8.6607145131       -0.3224010371
 O         1.0039598743        7.6345446814        0.5985593930
 O         5.2404164229        6.7341790725        0.4477565067
 C         2.6937802334        8.6127798639        2.3188777954
 C         3.5670111654        6.3194068575        2.7648613534
 H         0.8535686904       -4.6851818866      -10.7820225482
 H         1.3935112675       -3.0073459772      -11.0683821717
 H         1.9755529873       -3.8115112668       -9.5895323984
 H        -0.6886789421       -3.1357004754       -6.0547692720
 H        -0.9512897950       -1.6838652671       -7.0272841393
 H        -2.2207137141       -4.1684824819      -10.5078120571
 H        -2.5904905976       -5.4537798321       -9.4027856706
 H        -1.2367121374       -5.6499340771      -10.4567525086
 H         0.4135800383       -4.7174260880       -7.2930384814
 H        -1.0396567566       -5.5472782971       -7.2195875504
 H         0.1395937769       -6.0722680700       -8.6817451805
 H        -3.3383675608       -1.6055192260       -6.1863274034
 H        -3.2361555368       -3.2975940337       -5.4817599547
 H        -2.7352223412       -4.0243847632       -2.3498407542
 H        -2.1935238758       -2.4594684959       -1.5633468781
 H        -2.9216738361       -0.2497916265       -1.3939306577
 H        -3.1272767876        0.7552422472       -2.8219839187
 H        -1.5950670834       -0.3368330481       -2.4725136406
 H        -4.7303518837       -1.4938746139       -4.9070386682
 H        -5.4331929088       -0.2865858269       -3.7739373293
 H        -4.1223558638        0.1327423705       -4.9857119385
 H        -3.5777629708       -4.8066346233       -0.4162647443
 H        -4.6823642460       -3.4707287943       -0.5012913411
 H        -1.2245409771       -6.0805356696        3.4249975984
 H        -1.5877546010       -6.3238760816        1.7895855184
 H        -4.4662185364       -2.3199553798        2.3511664126
 H        -3.0723651797       -1.8396934127        3.1174795173
 H        -4.2100516353       -2.9345891834        3.9577492861
 H        -4.8737227124       -4.6095887038        1.9542962466
 H        -3.4332721279       -5.7531218054        1.5906473891
 H        -3.8958238789       -5.3099896966        3.2506815425
 H         0.9868054677       -4.9917654102        2.9667234990
 H         0.9698007816       -6.6442355767        2.4873567057
 H         2.5665817646       -2.8401847619       -1.3800469743
 H         1.3401731089       -2.6864245339       -0.2483606340
 H         3.0667145206       -6.7883407668        1.5485586669
 H         3.9142540764       -6.6341212519       -0.0199754718
 H         2.2445469324       -7.4301740967        0.1115657967
 H         1.0344276123       -4.4796010698       -1.5813060769
 H         2.6324575086       -5.2253706477       -2.0941638150
 H         1.3895813282       -6.2372280274       -1.8128526395
 H         3.3589633759       -0.9566130525       -0.7807907386
 H         4.0947934729       -1.7488559704        0.6332649915
 H         3.0013399315        1.7267949665        4.8619661731
 H         3.1421349853        3.1613162558        3.8749561234
 H         4.2972152956       -1.2141913732        3.6288347408
 H         2.7827400957       -1.8707620389        3.0219363966
 H         2.9084972664       -0.7261822249        4.3623734832
 H         4.4653681908        1.3739908566        1.1635735831
 H         4.9087712391        1.0872846983        2.8001734965
 H         5.2313295827       -0.2316913469        1.6404918548
 H         1.2790680133        3.1987709307        5.3100147591
 H         0.7749828645        3.4549929090        3.5984472218
 H        -3.6949884382        3.4959520548        4.4509033288
 H        -2.0338357297        4.1474928007        3.7264022426
 H        -2.6563017500        0.3030694737        6.1953335166
 H        -0.9846940957        0.2281929960        6.7013818063
 H        -1.3828353323       -0.4890055758        5.1427534570
 H        -0.9365125433        2.7955957415        7.1969479458
 H        -1.3063798931        3.9134991393        5.7324677139
 H        -2.5248352312        2.9768982671        6.4959447740
 H        -4.3958235283        4.2221075844        2.3604548754
 H        -3.9284665760        2.4447215476        1.9559981477
 H         0.2011474149        3.6643736749        0.0807231452
 H         0.0100365103        5.1575282748       -0.6718914306
 H        -3.1744857580        6.5083129326       -0.5892927737
 H        -2.0821842200        5.2470644121       -1.2079021978
 H        -1.3407488674        6.6984876976       -0.6929831848
 H        -2.5418410536        5.8595321290        2.9247843162
 H        -2.1448207161        7.3444231682        1.8625488284
 H        -3.7531711891        6.5423085516        1.8858834080
 H         2.1661881137        4.8557796904        1.3516976629
 H         2.4096714312        4.9956057857       -0.2955890650
 H         5.2451816257        8.9142167579       -0.6259589980
 H         3.6588934321        8.4776936136       -1.2679494736
 H         3.7173848882        9.5636269242        0.0586926595
 H         3.5740006694        9.1911290099        2.5993167165
 H         2.0783511526        8.3547550737        3.1650518658
 H         2.1317247103        9.2885518818        1.6843792161
 H         2.8007384282        6.2977166209        3.5269172986
 H         3.9652120190        5.2687961223        2.4645658836
 H         4.3608276314        6.8157090863        3.3490158736
 Na       -1.0222102999       -0.9472422634        2.4285085044
