155

 C        -2.0993410414       -3.8661204593      -11.3768456200
 C        -2.2124852693       -3.4097589565       -9.8336032019
 C        -2.2624573859       -4.5499755158       -8.7710134232
 C        -2.8952997812       -4.0844645576       -7.4296938976
 C        -2.3208701789       -2.8294556992       -6.7503683367
 C        -2.8219894936       -5.8334073911       -9.2519519226
 C        -0.7293467673       -4.7957433950       -8.5018332568
 O        -2.0831230872       -2.2603361931       -9.5325873891
 O        -3.8470268432       -4.6814693040       -6.9550541040
 C        -3.2036611951       -2.2536805723       -5.5532496836
 C        -2.4985539892       -1.2621271476       -4.6410745251
 C        -3.3499319872       -0.4515752820       -3.5273533894
 C        -3.5991720230       -1.3146019159       -2.2281760102
 C        -2.3857464014       -2.1568830844       -1.6086707387
 O        -1.3534125407       -0.8908266595       -4.7499944645
 O        -4.6495110812       -1.4411618709       -1.6215158616
 C        -2.6146995171        0.8528751001       -3.1186672408
 C        -4.6974000824        0.0401537277       -4.1688805813
 C        -2.7487710015       -2.9461518516       -0.3486128154
 C        -2.2666704000       -2.2537238380        0.9812268895
 C        -2.6388721894       -3.0616243549        2.3214084579
 C        -1.3044225304       -3.5459337289        2.9377328267
 C        -0.7747014817       -4.9603614321        2.7156461573
 C        -3.2461555413       -2.0559710002        3.3073689436
 C        -3.6083512314       -4.2560611257        2.2137508198
 O        -1.5880877127       -1.2427974972        0.9699544453
 O        -0.5732513715       -2.8433593507        3.6420603024
 C         0.6040474672       -5.0735928630        2.1080059262
 C         0.5539005732       -5.1254509007        0.5600580266
 C         1.8975956632       -5.0077755768       -0.2369926562
 C         2.4594863470       -3.5399169856       -0.1109572485
 C         1.9277509963       -2.3670310899       -1.0059703407
 O        -0.5326856236       -5.1806234495       -0.1063904490
 O         3.2298132392       -3.3352478562        0.7415239243
 C         2.9455525329       -5.9548449382        0.4234546886
 C         1.6345404487       -5.3327487282       -1.7780212606
 C         2.7098058845       -1.1665341134       -0.5186988877
 C         2.3618847912       -0.8344705889        0.9596077431
 C         3.4489781929       -0.2732603829        1.9437777828
 C         3.0328133735        1.2133232380        2.4739414791
 C         3.3738907979        1.8008032167        3.8774642065
 C         3.6636691079       -1.2291556274        3.0441076219
 C         4.8111208600       -0.1336500125        1.1741045738
 O         1.2787323933       -1.3179181261        1.3403509631
 O         2.3763176566        1.8735082275        1.6846075353
 C         2.1969571993        2.5739874549        4.5070915891
 C         0.9496865303        1.7141027730        4.4764853360
 C        -0.4509075441        2.0984608765        4.9854194223
 C        -1.5689526372        2.0111940903        3.7314857801
 C        -2.7689343344        3.0152478050        3.8877814131
 O         1.0895110408        0.6247502187        3.9504552427
 O        -1.4811896567        1.1909542398        2.8745934888
 C        -0.8880402551        1.0138840612        6.1888862140
 C        -0.2868529163        3.4957572266        5.6027368817
 C        -3.7025238911        3.0149844216        2.6598957542
 C        -2.9737633395        3.1170064504        1.3676092195
 C        -2.1388003047        4.3203886372        0.9352166356
 C        -0.5979076105        4.1376819053        1.3666800191
 C         0.5044576993        4.4777511699        0.4255864732
 C        -2.2355364019        4.4092630794       -0.6967986378
 C        -2.6560831203        5.6962551811        1.5881365217
 O        -3.3613742709        2.2773042000        0.5342053872
 O        -0.2859955806        3.7911666367        2.4884351553
 C         1.7968306095        4.9163230310        1.1190321443
 C         1.8757149291        6.4143831772        1.4980323333
 C         3.1947200653        7.1671810467        1.7320054172
 C         4.2196658337        6.8480183240        0.5360181688
 C         4.1513745545        7.4901134802       -0.8037293073
 O         0.8494730935        7.0214152792        1.6255381702
 O         5.0755284482        5.9851705217        0.7272366550
 C         2.8326167160        8.7111655284        1.7978700812
 C         3.9188404174        6.6797034000        3.0696856285
 H        -2.2958565651       -3.1425154421      -12.1998598071
 H        -1.0245406852       -4.3056490682      -11.4707460603
 H        -2.7191183125       -4.6849858696      -11.4739854485
 H        -1.3719955220       -3.1862661284       -6.2809071401
 H        -2.0772174142       -2.0977837208       -7.6030382841
 H        -3.8072380092       -5.7054352141       -9.7354108271
 H        -2.7792193268       -6.4852806385       -8.4714422639
 H        -2.2621303215       -6.2754163589      -10.0027355863
 H        -0.1268801675       -3.8637763884       -8.3614590590
 H        -0.5609324101       -5.3141934663       -7.5148465244
 H        -0.2845525165       -5.3864299197       -9.3772994633
 H        -4.0211842483       -1.7245231296       -6.1562601178
 H        -3.7128869677       -3.0164379438       -4.9101565747
 H        -1.8504095604       -2.6852518916       -2.3654227090
 H        -1.6205673430       -1.3948903540       -1.3165048794
 H        -3.0439263991        1.5196641966       -2.3198081744
 H        -2.7162787002        1.5149363313       -3.9929616458
 H        -1.6050724833        0.6762623364       -2.7533993884
 H        -5.2718068007       -0.7947317171       -4.4832153939
 H        -5.3201049066        0.6625454374       -3.5786466304
 H        -4.5466644174        0.6167499144       -5.1032565611
 H        -2.3692055150       -4.0120431393       -0.3956134908
 H        -3.8348271986       -2.8536184147       -0.3374478176
 H        -0.8237197482       -5.3788523408        3.7113575139
 H        -1.4094861272       -5.5827429728        2.1249552565
 H        -4.2314772493       -1.8836476899        2.8873931144
 H        -2.7154943193       -1.1336887249        3.2766221350
 H        -3.3442284784       -2.3472345246        4.3576101512
 H        -4.5923750149       -4.0684890003        2.6289359603
 H        -3.7867573069       -4.6439407002        1.1912344556
 H        -3.3174857892       -5.1287819676        2.7208561172
 H         1.1723585412       -4.1845612663        2.3974217439
 H         1.1163895188       -5.9428075686        2.6128008252
 H         2.1468270952       -2.5341898915       -2.0718570577
 H         0.8241804253       -2.0857961845       -0.8807841743
 H         3.0798201256       -5.5411421481        1.3861002235
 H         3.8895504120       -5.9532144438       -0.0973693188
 H         2.5396635388       -6.9444935958        0.3584272445
 H         0.7105112072       -4.7099171565       -2.0163985233
 H         2.4836235004       -5.1065204868       -2.3681928211
 H         1.4120455096       -6.3750395210       -1.9494783060
 H         2.4441242081       -0.2786697559       -1.1353948030
 H         3.7498144051       -1.3848495845       -0.7886172851
 H         3.5396336000        1.0298273957        4.6428841490
 H         4.3498788530        2.3853998928        3.8343308929
 H         4.4827925219       -1.0107946640        3.7434457585
 H         3.8558777468       -2.2531705342        2.6099761929
 H         2.7467739104       -1.4343399240        3.6383494547
 H         4.6630271806        0.4633947328        0.3203848802
 H         5.5689422819        0.4322169498        1.7158263846
 H         5.1757098894       -1.1914250933        0.9549781831
 H         2.4245170897        2.9892642680        5.4666063343
 H         1.8436220014        3.4097308427        3.8495208884
 H        -3.1924814940        2.8772570042        4.8703497137
 H        -2.2564747688        4.0947104761        3.8453498701
 H        -1.8073424617        1.3693271776        6.5317611324
 H        -0.2932366900        1.1913941750        7.0599077011
 H        -0.9156854426       -0.0402349361        6.0129891385
 H         0.3413017079        3.5356705971        6.5566563994
 H        -0.0353733231        4.1813294105        4.7939820847
 H        -1.2573591047        3.7939748157        5.9683092459
 H        -4.4974843599        3.7950355721        2.7297977656
 H        -4.3552646202        2.1372676503        2.6283129907
 H         0.6837169390        3.5005382800       -0.0336288791
 H         0.3003058355        5.2250716998       -0.2773499435
 H        -3.2336971102        4.2131923401       -1.0980329747
 H        -1.6402727597        3.5663810459       -1.1654447205
 H        -1.8845337756        5.3841421410       -1.0324755658
 H        -2.4079529825        5.6355839067        2.6071404387
 H        -2.1582334721        6.5684733253        1.1852832073
 H        -3.6800531590        5.9241556348        1.6391779777
 H         1.9527631606        4.2633925580        1.9510628930
 H         2.6092884577        4.6940363161        0.2973314334
 H         3.5228168746        8.3417348593       -0.9342900267
 H         5.1775912746        7.8148291789       -1.0559354155
 H         3.9282317374        6.7423701873       -1.5709547443
 H         3.6996971543        9.3038946046        2.1033277165
 H         2.0821057386        8.6823429130        2.5961939463
 H         2.4403022836        9.0835330909        0.8630763439
 H         3.5782551617        7.1268619042        3.9499068040
 H         3.7910199172        5.5856224134        3.2185579471
 H         4.9727786101        6.8294876120        3.1160543120
 Na       -0.3354452119       -0.6966908591        2.9025905732
