155

 C        -5.8950715961       -4.1469375747       -8.8270022106
 C        -4.5144333532       -3.5142483123       -8.8922355987
 C        -3.2970190406       -4.4172982236       -8.3289278449
 C        -3.4027648243       -4.0526573748       -6.7184438534
 C        -2.7764528912       -2.7403792525       -6.3868684318
 C        -3.6591931644       -5.9057250276       -8.7064598909
 C        -1.8206951821       -4.0557768386       -8.8203250590
 O        -4.1722704005       -2.4708039459       -9.3546329751
 O        -4.1345261615       -4.6860052751       -5.9399234651
 C        -3.4663881294       -2.1105870643       -5.1477826604
 C        -2.5306405668       -1.1219022185       -4.3593021302
 C        -3.2389590075        0.0861738100       -3.6327887407
 C        -3.8790374244       -0.6328236178       -2.2798333843
 C        -3.0107429372       -0.5664573631       -1.0231432162
 O        -1.3370329374       -1.2232305121       -4.2047318950
 O        -4.8826122467       -1.3215523485       -2.3574332265
 C        -2.1741224431        1.2525889775       -3.3178723229
 C        -4.4119559829        0.7048643172       -4.4722451933
 C        -3.1246006427       -1.8544782696       -0.3114490845
 C        -2.3037729555       -1.9063146514        0.9598077472
 C        -2.5398300370       -3.1715574121        1.9671525245
 C        -1.0346815645       -3.6566274043        2.3674788113
 C        -0.5579287808       -5.0834100334        2.6065096846
 C        -3.0417132742       -2.5526820939        3.3413602599
 C        -3.3961787131       -4.3855253922        1.4972491192
 O        -1.6512409808       -0.9314828710        1.2571532605
 O        -0.1574976995       -2.8424116923        2.6806836306
 C         0.6831147021       -5.4087529871        1.7724089686
 C         0.4672640581       -4.9598959378        0.3724968359
 C         1.6421902731       -5.0275845003       -0.7185906473
 C         2.6203227927       -3.8331719481       -0.2630485373
 C         2.7456348852       -2.5565745058       -1.1098320565
 O        -0.6255013817       -4.4349621098        0.0291448622
 O         3.2764136854       -3.9895553646        0.7330100294
 C         2.3767184286       -6.3528934053       -0.6492322561
 C         1.0139868975       -4.7348327080       -2.1172062862
 C         3.5731700298       -1.4760891549       -0.4579395905
 C         3.0033422763       -0.9909611956        0.8257551680
 C         3.9368389780       -0.2436711726        1.9016041878
 C         3.3069223699        1.1383273458        2.3386273607
 C         3.8550369413        1.8823245494        3.5880615599
 C         4.1879694779       -1.3023235211        3.0166304285
 C         5.2358028105        0.2201943306        1.2260751764
 O         1.8539279080       -1.1106019608        1.2217935985
 O         2.6124404446        1.7294639940        1.6029417016
 C         2.6737235290        2.4249295373        4.4173658799
 C         1.5639090743        1.4358591237        4.4961323706
 C         0.2477987458        1.9724144390        5.1434059347
 C        -0.9895352480        1.9179160401        4.2429059761
 C        -2.0658419191        3.0679884143        4.2556252614
 O         1.6345068866        0.2706530811        4.1451493903
 O        -1.2615007666        0.9304747405        3.6340259394
 C        -0.0844650115        1.1225085640        6.4307600820
 C         0.4143674307        3.4234739772        5.6644658137
 C        -3.1138837487        2.8755399671        3.1487629676
 C        -2.4194618822        2.7852985819        1.6641164314
 C        -1.8125486222        4.1039103822        0.8942534467
 C        -0.2149459804        4.0862178657        1.1738981208
 C         0.6423143346        4.1834873839       -0.0201363463
 C        -2.2796683111        3.9582247003       -0.5615104187
 C        -2.3869218708        5.4123148704        1.4961827548
 O        -2.5764787673        1.7599388603        1.0420839997
 O         0.2117827244        4.2346563875        2.2705465476
 C         1.9718689114        4.8533944546        0.1673013393
 C         1.8129892166        6.2722731231        0.4352383904
 C         2.9258201144        6.8973285386        1.3581919787
 C         4.2019230216        6.6289262416        0.6005592010
 C         4.5201879868        7.6248947689       -0.4700819214
 O         0.8284711116        6.8829293469        0.0886532279
 O         4.9184179166        5.7056070665        0.9249482882
 C         2.6886866274        8.4661167053        1.6887816875
 C         2.9028199215        6.1692863541        2.7202302250
 H        -6.0910525615       -4.8535334401       -9.6179158240
 H        -6.0454066416       -4.6272395498       -7.8382059214
 H        -6.5977782335       -3.3241674161       -8.9273749768
 H        -1.6671560053       -2.7198775313       -6.1803825012
 H        -2.8963816096       -2.0122514402       -7.2078829677
 H        -4.3885689198       -6.3496315658       -7.9856903216
 H        -2.7710142823       -6.4612743033       -8.6782142191
 H        -4.0715708753       -6.0678261850       -9.6403726980
 H        -1.6467368127       -2.9021617985       -8.8266534896
 H        -1.0235473309       -4.5048287570       -8.1627121172
 H        -1.6737997142       -4.2757867703       -9.8248204950
 H        -4.4334526601       -1.6050512877       -5.3785607849
 H        -3.7971729765       -2.9493534248       -4.4861824456
 H        -1.9554882607       -0.3082224682       -1.2296980024
 H        -3.4583409226        0.1841859680       -0.4480616460
 H        -2.6472497659        2.2832173059       -3.2585810967
 H        -1.5834438319        1.3224735585       -4.2039675089
 H        -1.6818088748        1.0616109990       -2.4253849501
 H        -5.2685812911        0.0497283684       -4.5752624633
 H        -4.7371808005        1.6160517457       -3.9619029875
 H        -4.0942412414        1.0308808483       -5.5045602245
 H        -2.8382058208       -2.6670044900       -0.9700865717
 H        -4.2181807575       -2.0372816318       -0.3036106139
 H        -0.3117627487       -5.1174425319        3.6204633499
 H        -1.3659749570       -5.7069429606        2.3346233054
 H        -4.0851257624       -2.1806362727        3.2392654056
 H        -2.3456732672       -1.8049050199        3.6069097161
 H        -2.9991722002       -3.3020007536        4.2175123279
 H        -4.3583150894       -4.2185641615        1.9954543683
 H        -3.4903287243       -4.3364972564        0.3948117495
 H        -3.0294603776       -5.3262578929        1.8228792352
 H         1.4984478890       -4.7683878507        2.1817196419
 H         0.9657893966       -6.4971955984        1.9057216780
 H         3.1177484353       -2.6153164386       -2.1542789204
 H         1.7733328505       -2.0590449260       -1.2903996466
 H         2.9209942657       -6.3898554727        0.3208764184
 H         3.1153928207       -6.5177985840       -1.4928794499
 H         1.5998902361       -7.1455000382       -0.8432968174
 H         0.1566884050       -4.0326810331       -1.9745670940
 H         1.7848798584       -4.3181759549       -2.6759943339
 H         0.6985551854       -5.6492977391       -2.5698313864
 H         3.4295754677       -0.6027694715       -1.1230991335
 H         4.6384615051       -1.7389263084       -0.4396974213
 H         4.5808200246        1.3345949809        4.2341032859
 H         4.3432672349        2.8613801726        3.3132677272
 H         4.8364440868       -0.8878909703        3.7658007961
 H         4.7286935301       -2.2008578090        2.6758982921
 H         3.2087799058       -1.5980196992        3.3893414793
 H         4.9263753947        0.8943876129        0.5000668000
 H         5.7772689846        0.8951865075        1.8594005854
 H         5.8633653028       -0.6163068456        0.8507964637
 H         3.0151937656        3.0171337611        5.3258304848
 H         2.2766027413        3.1743207836        3.7120209441
 H        -2.4578204113        3.1133412167        5.1553583972
 H        -1.6134042463        4.0885146243        4.1122726960
 H        -1.1453373410        1.2890135349        6.7190482083
 H         0.5936529105        1.3876178367        7.3048286983
 H         0.0415859878        0.0518906287        6.0651474787
 H         1.1518187545        3.5779006185        6.4691189559
 H         0.7030294569        4.0875158577        4.7829517246
 H        -0.4662856683        3.7774845835        6.0296308380
 H        -3.7953541872        3.7629907940        3.1178518694
 H        -3.7339707853        1.9803225426        3.3635110713
 H         0.8246224052        3.2171902242       -0.3673871620
 H         0.2399590862        4.6641734976       -0.8705282947
 H        -3.3368908057        4.0067522398       -0.6320734637
 H        -2.2207320092        2.9390050643       -0.9265402254
 H        -1.8938011377        4.7218963753       -1.1876825445
 H        -2.0437386094        5.4630228898        2.5592160605
 H        -1.9639436403        6.3300853253        0.9356802499
 H        -3.5177547625        5.4207565731        1.5341302494
 H         2.6014956137        4.2679390140        0.8572544136
 H         2.4729724477        4.6784683153       -0.7981137535
 H         3.6580029094        8.2204871623       -0.6799340690
 H         5.3359452578        8.2607288064       -0.0940036223
 H         4.8386800230        7.2315979817       -1.4345313393
 H         3.4184507714        8.8487627100        2.3714920439
 H         1.7378933705        8.4021900022        2.2052037458
 H         2.7047090123        9.1400209676        0.8583226511
 H         2.0930427053        5.5787836447        2.9400023347
 H         3.7729873013        5.4592193905        2.6976194484
 H         3.0931333180        6.8495155645        3.5180910256
 Na        0.1081628703       -0.6935983410        2.7658992425
