155

 C        -6.1848218372       -4.0479573003       -8.3395441764
 C        -4.7667950257       -3.5447543522       -8.8077592190
 C        -3.5094451395       -4.3238109166       -8.2972202744
 C        -3.4769304032       -4.1093889161       -6.7005974884
 C        -2.7523738521       -2.8467875351       -6.1222429216
 C        -3.6957156492       -5.8618603234       -8.4208457518
 C        -2.1553094657       -3.9097878566       -9.0090014449
 O        -4.5573968251       -2.5265814499       -9.4419788783
 O        -4.0003456813       -4.8787932123       -5.9178942151
 C        -3.5531363759       -2.1840079951       -5.0486917171
 C        -2.6021338967       -1.1423156315       -4.3959260864
 C        -3.2618821099        0.2366972270       -3.5574087394
 C        -3.8031645715       -0.5358905900       -2.3033930122
 C        -2.9080991859       -0.6831739076       -0.9859020402
 O        -1.3951402454       -1.3041200372       -4.3273399514
 O        -4.8859330356       -1.1023353418       -2.3881992019
 C        -2.0183747008        1.1403217065       -3.3312547799
 C        -4.4921944683        0.8474580154       -4.2242622509
 C        -3.1291737650       -2.0606725922       -0.1811609446
 C        -2.4473355981       -1.9233015391        1.1479653856
 C        -2.5338777935       -3.1271767330        2.1600594370
 C        -1.0061193611       -3.6797088299        2.2873938024
 C        -0.7632507915       -5.1986060893        2.3467084839
 C        -2.9234331616       -2.5530033396        3.5350588073
 C        -3.6595294036       -4.1446570111        1.6648500730
 O        -1.7479430465       -0.9741393429        1.3594922455
 O        -0.0451977041       -2.9858693133        2.3612634857
 C         0.5719496151       -5.4476119059        1.5456793916
 C         0.3500884537       -4.8754563050        0.0858835889
 C         1.6150954832       -4.9678687686       -0.8065453637
 C         2.6392285920       -3.7802986125       -0.3784876018
 C         2.8683592714       -2.5536423644       -1.1896812306
 O        -0.6463606737       -4.2923147069       -0.1786100419
 O         3.2439126950       -3.9802522653        0.6616946972
 C         2.3293001089       -6.3104157572       -0.5750387008
 C         1.1791003293       -4.8446357674       -2.3149866023
 C         3.8034239541       -1.5153334541       -0.4607089377
 C         3.1366531443       -1.0491914944        0.8747499875
 C         4.0727367900       -0.2073604333        1.7842318502
 C         3.3665226307        1.0985396564        2.3185152366
 C         4.0131940855        1.8253537286        3.5215879993
 C         4.2684304723       -1.1132489345        3.0400232624
 C         5.5594500332        0.1748413130        1.3719814794
 O         1.9892167260       -1.3514177151        1.1525224475
 O         2.3188922563        1.5264326712        1.7646307149
 C         2.8388012254        2.6098774079        4.2855826491
 C         1.6635517057        1.6491593167        4.5233970541
 C         0.3564213003        1.9818989411        5.2159034537
 C        -0.9188993605        1.8626246115        4.1815969374
 C        -1.8301170847        3.1099585296        4.1494141726
 O         1.7704989285        0.5372557606        4.0836318480
 O        -1.2424668409        0.8166173875        3.7018461662
 C         0.1416962826        0.9316988203        6.2900571067
 C         0.5269366851        3.3883602138        5.7968462887
 C        -3.0068332535        2.9986320670        3.2130906409
 C        -2.6250237195        2.8573832702        1.7087317398
 C        -1.9078077879        4.2268694911        0.9119188133
 C        -0.4084240079        4.1441209955        1.0955734012
 C         0.5683728491        3.9890853649        0.0189828477
 C        -2.2767620430        3.9797142530       -0.6456251626
 C        -2.3221193981        5.6231144304        1.4895053458
 O        -2.7807447475        1.8712645524        1.0161060881
 O         0.1624900455        4.0798274554        2.2397906134
 C         1.9151346285        4.7282484834        0.3335843554
 C         1.8924906593        6.2416450776        0.4333824606
 C         2.8729858272        6.9090456774        1.4470019151
 C         4.1619835125        6.7164250132        0.6629642699
 C         4.6240509188        7.6593960764       -0.4603447388
 O         1.1791655329        6.8826355955       -0.3153692018
 O         4.8830077636        5.7372109459        0.8657637729
 C         2.4949744293        8.4196772385        1.6733420258
 C         2.8807760563        6.1576549029        2.8703334954
 H        -6.6060688767       -4.6781762703       -9.1769977226
 H        -6.1105859657       -4.6829207691       -7.4487310049
 H        -6.8986955220       -3.3000496725       -8.1521759098
 H        -1.7889727451       -3.1443021391       -5.7081894026
 H        -2.4765839542       -2.0449305898       -6.8219298074
 H        -4.6170506879       -6.1107040643       -7.8599152466
 H        -2.7809303310       -6.4585249032       -8.3582540680
 H        -4.0022052861       -6.1276955937       -9.4664765261
 H        -1.8948157779       -2.8711345668       -8.9640768487
 H        -1.3319692049       -4.4561772081       -8.5929226781
 H        -2.2778448537       -4.0931177227      -10.1598703227
 H        -4.4214085059       -1.7284598720       -5.5248915342
 H        -4.0178686051       -2.9546951108       -4.3952924295
 H        -1.8659115716       -0.7651882494       -1.2883594873
 H        -2.9782178727        0.2558186283       -0.3157077170
 H        -2.1858691861        1.7517670000       -2.4627386868
 H        -1.9246645830        1.8008019344       -4.2247679727
 H        -1.2280122875        0.3930326087       -2.9283943868
 H        -5.3043994140        0.0940235154       -4.2664888556
 H        -4.8476612060        1.7203359215       -3.6582523409
 H        -4.2840909931        1.2258820089       -5.1890304292
 H        -2.8577172840       -2.9603292300       -0.7472525679
 H        -4.1497029232       -2.3264670316        0.0393203808
 H        -0.5525842137       -5.3748877908        3.4777007206
 H        -1.5375546273       -5.9208754473        1.9585049198
 H        -3.6996328867       -1.8375743652        3.3943306210
 H        -2.0529971775       -2.1833540331        4.1638057827
 H        -3.3089365767       -3.3453600020        4.1031806004
 H        -4.5940031051       -3.6044940446        1.6444347370
 H        -3.3998966270       -4.5733253843        0.7360974540
 H        -3.7733065122       -4.8870051623        2.4956105654
 H         1.4967317009       -4.9751155150        1.9837872767
 H         0.6464266908       -6.5372328614        1.5927577743
 H         3.2990939353       -2.6922856716       -2.1769710869
 H         1.9373996983       -2.0516208648       -1.4388602189
 H         3.0345689148       -6.2072563750        0.2517801033
 H         2.9509430144       -6.5330813602       -1.4201429671
 H         1.5994615163       -7.0842360179       -0.5054498049
 H         0.5045954051       -4.0112862177       -2.4681753278
 H         2.0411632735       -5.0188372258       -3.0073468883
 H         0.5293588055       -5.7297151538       -2.4168374855
 H         4.0704325761       -0.7162059885       -1.1569492365
 H         4.6914521911       -2.0930896859       -0.2032277869
 H         4.4575657331        1.1671430611        4.2423560157
 H         4.7169407817        2.5303332731        3.1755313493
 H         4.8150259728       -0.4834099169        3.8186228326
 H         4.8452838968       -2.0307349553        2.8203219674
 H         3.2836840116       -1.4454644613        3.4218666817
 H         5.6130662707        1.1334537528        0.7865703841
 H         6.0744921879        0.5396502151        2.2608698759
 H         6.0775421258       -0.6692243865        1.0295198275
 H         3.2045564198        2.8743465305        5.2478753515
 H         2.5998866958        3.5441706452        3.7569716737
 H        -2.2025984550        3.3639009619        5.2830020785
 H        -1.2821481688        4.0299034301        3.9058421247
 H        -0.6459391869        1.3568414645        6.9392945693
 H         0.9992128083        0.7174886474        6.9047394999
 H        -0.2187516562        0.0597164630        5.7748492327
 H         1.5004858549        3.5560443707        6.3373477883
 H         0.4387532039        4.1598827014        5.0515405629
 H        -0.2898039384        3.5743665615        6.5924022567
 H        -3.6982897602        3.8245192521        3.4104876866
 H        -3.6392169797        2.1554545553        3.4802720709
 H         0.6864362315        2.8691112098       -0.1239994260
 H         0.2926771873        4.4243007425       -0.9983790050
 H        -3.3225985354        3.6584664083       -0.7445423326
 H        -1.8418858122        3.1224330374       -1.0949236609
 H        -2.1798213134        4.8912556953       -1.2538860446
 H        -2.2779047245        5.6651042396        2.5747613304
 H        -1.7737238631        6.4320596774        1.0636106837
 H        -3.3842381621        5.6911904205        1.2800187633
 H         2.3065895087        4.2580942655        1.2485977475
 H         2.6213821365        4.4305322280       -0.4568121160
 H         3.9417710582        8.2073333813       -1.1036303607
 H         5.3527575772        8.2901043161       -0.0203389137
 H         5.1561547236        7.0614641294       -1.1724629022
 H         3.3466556375        8.9411925477        2.1331516426
 H         1.5831380871        8.5485483245        2.2467145978
 H         2.3968379167        8.8906128274        0.6721263363
 H         1.8352708747        5.7685712447        2.9838981787
 H         3.5252405327        5.3479738096        2.9175044479
 H         3.1034614971        6.7883323960        3.7081529921
 Na        0.2109324662       -0.6550415912        2.6554317030
