155

 C        -9.1462802505       -4.2121829703       -5.4223603479
 C        -7.7839150805       -3.7149777387       -5.4105919055
 C        -6.6454636722       -4.4280702278       -6.3080942218
 C        -5.2785761675       -3.9784361026       -5.6585847881
 C        -4.7866469378       -2.4972695314       -5.8613769822
 C        -6.6582500820       -5.9643165525       -6.2029385442
 C        -6.9555487331       -3.9769065236       -7.7767718960
 O        -7.4903618591       -2.7122771309       -4.7812886747
 O        -4.7202699962       -4.7279790546       -4.9308625300
 C        -3.9766972029       -2.1273411617       -4.6836317832
 C        -3.2344256246       -0.7321862221       -4.6184752496
 C        -4.1422494199        0.4721702495       -3.8959459175
 C        -4.1333375776        0.0128905587       -2.3090049857
 C        -2.7301757592       -0.2467059528       -1.6558083689
 O        -2.1579096867       -0.4725964256       -5.0305194438
 O        -5.1005428378       -0.3093597640       -1.6707103552
 C        -3.4136778416        1.7924826826       -4.0483831712
 C        -5.5719324953        0.5417622324       -4.3761540478
 C        -2.8411583150       -1.4711564582       -0.6971028465
 C        -1.6456769981       -1.6559895771        0.3055405291
 C        -1.8888420880       -2.9453412492        1.2241753603
 C        -0.5554621586       -3.3702013143        1.7467887803
 C        -0.0427427950       -4.8187032193        1.7882841111
 C        -2.7442645375       -2.3374779402        2.4784503722
 C        -2.6966206168       -4.0093293690        0.5489143645
 O        -0.6767402670       -0.9491986523        0.3375638239
 O         0.1843426716       -2.5205978821        2.3551074464
 C         1.1273590628       -5.0243961864        0.8661931709
 C         0.8642769649       -4.5172602024       -0.5457655539
 C         1.9474158702       -4.8051254965       -1.6772821632
 C         3.0370270618       -3.7416732123       -1.3492917886
 C         3.3238352103       -2.4704295013       -2.2983302337
 O        -0.1661050638       -3.8426147357       -0.7401550063
 O         3.6035288762       -3.9304365605       -0.3294657085
 C         2.3913542342       -6.3024474603       -1.5272708791
 C         1.2989855671       -4.6096680623       -3.0710510969
 C         4.2122984839       -1.5212575790       -1.4591902389
 C         3.6641709349       -1.1546880364        0.0068851691
 C         4.6362441754       -0.8925584238        1.1626223435
 C         4.0611456484        0.3961945290        1.8640891357
 C         4.6120719423        0.8188175500        3.2541099629
 C         4.3781376294       -2.0546107231        2.1488154168
 C         6.1163381817       -0.7472776899        0.8902093424
 O         2.4728251052       -1.1259365808        0.1611120315
 O         3.2952153564        1.1810760957        1.2722609977
 C         3.6951329272        1.8494791483        3.9346263665
 C         2.4946047435        1.0806077249        4.4566761139
 C         1.3165231851        1.6170312735        5.3727386889
 C         0.0152787839        1.7573712623        4.4987061954
 C        -0.9922881293        2.8655819950        4.8822379489
 O         2.4155115407       -0.1186996870        4.1354922512
 O        -0.1967443024        1.0047594236        3.4953398818
 C         0.7955121390        0.4351049356        6.2754144465
 C         1.6875384546        2.8004086024        6.2761033092
 C        -2.2638904097        2.7497933105        3.9378054319
 C        -2.0839616167        3.0091848920        2.3323787892
 C        -1.7047452220        4.4836870635        1.9538665918
 C        -0.0936133391        4.5512178946        2.0236210249
 C         0.7465516550        4.0611999057        0.7580477310
 C        -2.1825469932        4.8074890244        0.5096650665
 C        -2.2656147603        5.5934534558        2.8866031270
 O        -2.3724758487        2.0976131551        1.5309927722
 O         0.4394541731        5.0415226416        3.0654039412
 C         2.1647445337        4.5564860570        0.5879248623
 C         2.1531775350        6.0742130527        0.3347980733
 C         3.4835996513        6.8368478777        0.0328221582
 C         4.7700503575        5.9626017018        0.6164885247
 C         5.5387265657        5.1831565327       -0.3813096670
 O         1.1184317207        6.7514856785        0.2654387848
 O         5.1262836205        6.0698004315        1.7586099233
 C         3.6112771559        6.9851081786       -1.5332878252
 C         3.5136591933        8.2568276438        0.6760346949
 H        -9.0601114906       -5.0112506888       -4.7327589421
 H        -9.8958600069       -3.3754473570       -5.2222072371
 H        -9.4364947982       -4.6628034228       -6.3358591234
 H        -4.2971944147       -2.5900576470       -6.8443245959
 H        -5.6655689220       -1.8744093187       -5.9080982677
 H        -6.8338538955       -6.2430572896       -5.0611471810
 H        -5.6906879421       -6.3166152209       -6.5972675300
 H        -7.3312799164       -6.5250436922       -6.8705626101
 H        -6.5857940610       -3.0573470447       -8.0352455944
 H        -6.5826380147       -4.6414084853       -8.5290773131
 H        -8.0132842289       -3.7423595738       -7.9257339814
 H        -4.5952673820       -2.1876319428       -3.8301717886
 H        -3.2651824650       -2.9611510138       -4.4610460768
 H        -2.0349022301       -0.4194595919       -2.4455769826
 H        -2.2312947980        0.5787186253       -1.1003922667
 H        -3.8590383839        2.5871804269       -3.4170979881
 H        -3.3005897082        2.1923308005       -5.1230749616
 H        -2.3048919508        1.6485647759       -3.7805871561
 H        -6.2399603093       -0.1817992581       -3.9798603208
 H        -5.8457016792        1.5840108545       -4.2278150368
 H        -5.6086534369        0.3760543244       -5.4263135251
 H        -2.7992637118       -2.3661331208       -1.3776900714
 H        -3.8449863573       -1.5821095106       -0.2204801775
 H         0.3125492348       -5.1400517652        2.7365180263
 H        -0.7802469932       -5.5108143187        1.6479150386
 H        -3.3559434404       -1.4479937268        2.2364379267
 H        -1.9460110077       -2.0475882718        3.1826243207
 H        -3.3965752481       -3.1104302860        3.0170024856
 H        -3.6098280339       -3.5791256289        0.1459506319
 H        -2.1191792702       -4.4252324529       -0.2893496594
 H        -3.1151881615       -4.7553407468        1.2361147832
 H         1.9605425451       -4.4042712285        1.1827134621
 H         1.4383861376       -6.0170198387        0.8602577198
 H         3.8135676512       -2.8425504572       -3.1640072667
 H         2.3840897561       -2.0467430724       -2.6012231123
 H         2.9727381744       -6.6492239423       -0.6874220656
 H         3.1759739287       -6.5299232706       -2.2858777466
 H         1.5640849900       -7.0018458703       -1.7574475796
 H         1.3232232115       -3.5824840326       -3.2086553980
 H         1.9379720441       -4.9855486572       -3.9033271080
 H         0.3289431712       -5.1487237487       -3.0181711420
 H         4.1769570729       -0.5371199734       -1.9628431138
 H         5.2643067050       -1.8662708683       -1.4539096450
 H         4.8305741977       -0.0171513576        3.9122573554
 H         5.6010752582        1.2818728045        3.0630067316
 H         4.7923099203       -1.9126288593        3.1314908400
 H         4.8260370682       -2.9578015026        1.7934833513
 H         3.2831578577       -2.1536897383        2.1456059501
 H         6.4166527427        0.1389597256        0.3730111592
 H         6.6327956344       -0.6481660522        1.8826037699
 H         6.5731091944       -1.6591629520        0.4711774561
 H         4.1013441780        2.1868542059        4.8840299912
 H         3.4566894585        2.6979052748        3.3804190258
 H        -1.3195178351        2.8272573352        6.0002692429
 H        -0.5496224218        3.7671140747        4.7548536805
 H        -0.1576645886        0.6777309893        6.7628145082
 H         1.5557315173        0.0051296356        6.9526134659
 H         0.4047733529       -0.3462407153        5.6538329228
 H         2.5454852954        2.5300040712        6.9045085000
 H         2.0080372211        3.6591952515        5.6785140756
 H         0.8140165158        3.0606764947        6.8588976465
 H        -3.1681082544        3.3895993094        4.1934628750
 H        -2.4848442986        1.6529437710        3.9821739988
 H         0.7211076523        3.0078015069        0.6967281584
 H         0.2401791814        4.4850377866       -0.1431260994
 H        -3.2512061869        4.7291649432        0.4114846920
 H        -1.8273634553        4.1762920574       -0.2956808894
 H        -1.8083920506        5.7981693673        0.3630065723
 H        -2.1985004778        5.5204362556        4.0217937263
 H        -1.8823755372        6.6051633624        2.6092680152
 H        -3.3882577488        5.5324697711        2.8459853153
 H         2.7264693100        4.4006700368        1.5622642463
 H         2.5299570360        4.1224105231       -0.3299998074
 H         5.2001754698        5.0886498232       -1.4295483229
 H         6.5694472951        5.5737663932       -0.4582709820
 H         5.5968938764        4.1601203018        0.0259861378
 H         4.5484134894        7.4381631219       -1.8954208199
 H         2.7445831556        7.5959069972       -1.8537749517
 H         3.5533538712        6.1058860955       -2.1814189160
 H         2.4885799562        8.6387025823        0.7648463324
 H         4.0019649955        8.2322127383        1.5702410049
 H         4.1147689231        8.8370930204        0.0016005484
 Na        1.0698050306       -0.5029613885        2.1635250758
