155

 C        -9.2966774878       -4.3296250771       -5.1592251539
 C        -7.9115483104       -3.6575636004       -5.2145459937
 C        -6.8318799908       -4.2985772952       -6.1184231090
 C        -5.4513972321       -3.9157656473       -5.5831267821
 C        -4.8425602706       -2.4626385497       -5.9624390614
 C        -7.0856258682       -5.8393107665       -5.9774928440
 C        -6.8147655843       -3.9263440502       -7.6509204232
 O        -7.6717992436       -2.7406171512       -4.4834102290
 O        -4.8018108157       -4.6503787485       -4.8592820963
 C        -3.8367890586       -2.2640808691       -4.7264537866
 C        -3.3823539502       -0.7928164158       -4.6652468850
 C        -4.1698992124        0.3460202010       -3.8608514251
 C        -4.0881510791        0.0114596056       -2.3393213490
 C        -2.6935214415       -0.2321019470       -1.6952560495
 O        -2.3254870439       -0.3801622860       -5.1243920963
 O        -5.1115775031       -0.0959559903       -1.6991063615
 C        -3.4363920670        1.6827228793       -4.0013376319
 C        -5.7199744186        0.4310925992       -4.2141953410
 C        -2.9357456507       -1.2608230722       -0.5938420732
 C        -1.7718060314       -1.4265487700        0.3670673342
 C        -1.8725991868       -2.7915131190        1.4580099237
 C        -0.5121863763       -3.3379084915        1.8398744692
 C        -0.1518007014       -4.7978398489        1.5321042526
 C        -2.6000120986       -2.1733046896        2.5940686183
 C        -2.8586378374       -3.8711924531        0.8246190682
 O        -0.8303732543       -0.6771260903        0.5248582957
 O         0.2242666140       -2.6461757712        2.4460698223
 C         1.1631355982       -4.8370166435        0.6481996726
 C         0.9258665428       -4.5446042060       -0.8864074587
 C         2.1467511446       -4.8651181818       -1.8227349949
 C         3.2211436649       -3.8118920283       -1.4536344989
 C         3.5277217036       -2.5463867167       -2.3790906998
 O        -0.1356858285       -4.1498943436       -1.2418051056
 O         3.8811175240       -4.0135871687       -0.4233221202
 C         2.6768656037       -6.2890639940       -1.4674879767
 C         1.5150214934       -4.8611970286       -3.3076606074
 C         4.2526776894       -1.3853692898       -1.5890808880
 C         3.6561526479       -1.1921665154       -0.2030860743
 C         4.5245977533       -0.8858313743        1.1215651013
 C         4.0605137039        0.5385515046        1.8255960187
 C         4.7173459238        1.1558563372        3.1235309377
 C         4.2091621926       -2.0970979211        2.0475180509
 C         6.0884985507       -0.8136239150        0.8920517426
 O         2.4288551888       -1.0790655285       -0.0586044774
 O         3.1074033247        1.1584543930        1.4544845886
 C         3.7655176183        1.8056886964        4.1511190663
 C         2.4651000982        0.9109181630        4.4681531771
 C         1.3365269337        1.4875650397        5.3669373451
 C         0.0141177556        1.7017802693        4.3940719800
 C        -0.9250241942        2.8558002683        4.8497560423
 O         2.4075193659       -0.2276559717        4.0582002922
 O        -0.1363390349        1.0737501645        3.3942037543
 C         0.9071623652        0.3228195656        6.3248813803
 C         1.7233338615        2.7892074711        6.2124700747
 C        -2.2272664628        2.8039170550        3.9858335326
 C        -2.0421626188        3.0980528438        2.4621159860
 C        -1.7459434188        4.6011210111        2.0030398564
 C        -0.0749682008        4.5576173745        2.0270850232
 C         0.6485652398        4.1267375221        0.7796032270
 C        -2.3104650316        4.5988020621        0.5780872054
 C        -2.3104647249        5.7078006283        2.9182819899
 O        -2.0779867584        2.1892732819        1.6625990808
 O         0.4601392068        4.6921365572        3.0555389185
 C         2.1679876194        4.6270470861        0.8316161300
 C         2.1975284916        6.1483472186        0.3384611641
 C         3.5793197427        6.7543074964       -0.1501218030
 C         4.7950204026        5.9747442802        0.4785176849
 C         5.5430469041        4.8877619504       -0.2804577667
 O         1.2816012476        6.9209247132        0.3900131448
 O         5.1324671810        6.0347806977        1.6553955894
 C         3.6365877350        6.8165768093       -1.6862059883
 C         3.7255504605        8.2259104350        0.5159885840
 H        -9.3336855244       -5.3277193181       -4.6718976332
 H        -9.8711344338       -3.6086231186       -4.7307598082
 H        -9.7759657113       -4.3934813524       -6.1786354666
 H        -4.3873320024       -2.4356315327       -6.9430476956
 H        -5.7045842648       -1.8044214733       -5.9270880233
 H        -6.9096768154       -6.1010324548       -5.0325627553
 H        -6.4890726759       -6.3439154908       -6.6922607739
 H        -8.0436226913       -6.0935142071       -6.2935832461
 H        -6.4720425891       -2.8666231130       -7.8474295372
 H        -6.0961449195       -4.6430653528       -8.1954570579
 H        -7.7073579960       -4.0007525512       -8.2911854292
 H        -4.3891727408       -2.5032241159       -3.7629112446
 H        -2.9781293720       -2.9283367646       -4.7812600648
 H        -1.9256116533       -0.5615654076       -2.4426002932
 H        -2.1544918302        0.6161709805       -1.2880974139
 H        -4.1809151314        2.4808643099       -4.0821499436
 H        -2.8819346222        1.6978563435       -4.8761741837
 H        -2.7072647144        1.8319988860       -3.2984453734
 H        -6.2806908594       -0.4425919940       -3.7869328358
 H        -6.0818418363        1.3816048958       -3.8300886015
 H        -5.9320410115        0.4204864241       -5.3054323258
 H        -3.1111737322       -2.2396478694       -1.0574875591
 H        -3.8315196476       -1.1697863033        0.0367690886
 H        -0.0123695073       -5.3839486318        2.4653708952
 H        -0.9890726796       -5.4204015261        1.0960376981
 H        -3.5878540018       -1.9833934966        2.1768729318
 H        -2.1362358108       -1.3027098729        3.0001596991
 H        -2.6389714292       -2.8429999515        3.4345934070
 H        -3.9258902531       -3.5675698657        0.8148515707
 H        -2.5492944101       -4.1083984212       -0.1893726726
 H        -2.7971035475       -4.7831866825        1.4544814850
 H         1.8360730241       -4.0354806020        0.9622197956
 H         1.6646260007       -5.8485883742        0.7415601138
 H         4.0669796304       -3.0053142973       -3.2521089266
 H         2.5161694829       -2.2352794234       -2.7274049888
 H         3.3657720492       -6.2314106855       -0.6139090787
 H         3.2379903082       -6.8860584476       -2.1391447849
 H         1.8408474719       -6.8684929042       -1.1513896424
 H         1.7308826801       -3.9044700894       -3.8974046960
 H         1.9797388567       -5.6820758577       -3.8239333324
 H         0.5193695457       -5.1746444397       -3.1062135371
 H         4.1662893675       -0.4263504864       -2.0920907305
 H         5.2694473375       -1.6429179011       -1.3722615201
 H         5.3116596795        0.3660172237        3.6193366970
 H         5.4541867686        1.9022600764        2.8083914932
 H         5.0711829557       -2.1643917632        2.7440490762
 H         4.1484879031       -3.0514552761        1.4665491176
 H         3.2470087255       -2.0321211634        2.5537250220
 H         6.3055067024        0.0611391435        0.2458526177
 H         6.7133300803       -0.7240469825        1.7348398478
 H         6.4456096451       -1.7181660100        0.4703262452
 H         4.2447896800        1.9936132826        5.1299610256
 H         3.4160981638        2.8127293655        3.7678364658
 H        -1.2396492570        2.8298794364        5.8231931032
 H        -0.2896913303        3.8845913861        4.6280779544
 H        -0.0088204027        0.6261151134        6.8694885562
 H         1.7300357441        0.0366240851        7.0201766256
 H         0.5166772269       -0.6148252802        5.8152562167
 H         2.4955269041        2.6072317700        6.8757404947
 H         1.9213039212        3.6330680911        5.6381520698
 H         0.8167339251        2.9753245739        6.8627730312
 H        -2.9470932433        3.5348109749        4.3124678546
 H        -2.4884330810        1.7635912114        4.0909896927
 H         0.6901059841        3.0072510912        0.8430798368
 H         0.1879821248        4.4263455310       -0.1429603267
 H        -3.4049044836        4.6370225429        0.5870865776
 H        -2.0382047134        3.6475570137        0.1535440131
 H        -1.8990333771        5.3707053282       -0.0928332502
 H        -1.7828895653        5.8040649599        3.8309333729
 H        -2.1220898249        6.6544759219        2.4074839150
 H        -3.3283252788        5.6333649146        3.2572867435
 H         2.4165737231        4.6485868202        1.8554365960
 H         2.7869837087        3.9534764158        0.1876479647
 H         5.3021350302        4.8280475058       -1.3321694306
 H         6.5787592961        5.1446445386       -0.2801521586
 H         5.4996690045        3.9559855604        0.2752150550
 H         4.6293725435        6.9440327367       -2.0704091555
 H         2.9572248292        7.5344078267       -2.0492750818
 H         3.2659289574        5.9120515225       -2.1497354181
 H         2.9582769967        8.7251341138        0.0137224099
 H         3.4453518514        8.1636483703        1.5921212956
 H         4.6696484766        8.7002858056        0.3230526459
 Na        0.9754593391       -0.5295004612        2.0898939242
