155

 C        -9.5043988412       -4.0999415092       -5.0466991112
 C        -8.0120634201       -3.6742813752       -5.0100336364
 C        -7.0200888171       -4.3242531331       -5.9313874708
 C        -5.5081444069       -3.9985460883       -5.3429189310
 C        -4.9639320546       -2.6112223518       -5.5449358240
 C        -7.0606619637       -5.8637002105       -6.0042058034
 C        -7.2822964241       -3.7745844311       -7.3434792915
 O        -7.7433113150       -2.5939606527       -4.4889037760
 O        -4.9160801961       -4.9043000874       -4.7778480936
 C        -3.9228033683       -2.1840618182       -4.6077581796
 C        -3.3422624290       -0.7148044905       -4.6949826060
 C        -4.1422957979        0.3650617296       -3.8426327046
 C        -4.0676974890        0.0802685146       -2.2786811446
 C        -2.7425323801       -0.2618115409       -1.5884189668
 O        -2.3855627675       -0.3729095197       -5.3871770815
 O        -5.0969698732        0.0570122223       -1.6031489872
 C        -3.6954563061        1.9123839662       -4.1399764853
 C        -5.6300895868        0.3017059604       -4.2963928521
 C        -2.9793877089       -1.3145364828       -0.5446177059
 C        -1.8330165115       -1.4441979385        0.6093005422
 C        -1.9147464728       -2.6449728470        1.6232479867
 C        -0.5751147483       -3.3498822133        1.8661641775
 C        -0.2161837320       -4.6591935138        1.1293328662
 C        -2.3645597137       -1.9111865891        2.9386861879
 C        -2.9875074958       -3.6091300805        1.1670987772
 O        -0.9890498989       -0.5920517406        0.6670653903
 O         0.3240307364       -2.7341738147        2.5380871300
 C         1.1285355559       -4.6177688976        0.4611705238
 C         1.0525046444       -4.6673123008       -1.0761239768
 C         2.4256323857       -4.9548572076       -1.9416803935
 C         3.4594168606       -3.8098465493       -1.4580570822
 C         3.3201975148       -2.4142540345       -2.1516510579
 O        -0.0138505849       -4.3864749800       -1.6086784755
 O         4.2747421865       -4.0730270589       -0.6054625841
 C         2.9360719343       -6.3366379774       -1.5902192403
 C         2.0718371923       -4.8677762885       -3.5306320367
 C         4.2478046162       -1.5727008566       -1.3713839646
 C         3.4244215760       -1.1241227520       -0.0951097114
 C         4.3331796025       -0.7784985145        1.1134576268
 C         3.7896849821        0.5692102993        1.7967266885
 C         4.6258713858        1.0218799980        3.0240500669
 C         4.1708019892       -1.9317052110        2.2227288527
 C         5.8062553992       -0.5929784348        0.7846685514
 O         2.2257854918       -1.0591720854       -0.0939563151
 O         2.7138939867        1.0624126429        1.5331180535
 C         3.7409293173        1.6418651526        4.0674919892
 C         2.5834515994        0.6876933375        4.3775900331
 C         1.4602662551        1.3417252037        5.3141264914
 C         0.1260823048        1.6427265564        4.3124915360
 C        -0.8511658028        2.7085656848        4.9254521368
 O         2.4377527654       -0.4009274162        3.8439468044
 O         0.0181640290        1.0634831815        3.2704206914
 C         1.0148226174        0.3160155109        6.3225294234
 C         1.9040797438        2.7108018122        5.9347307283
 C        -2.1919065727        2.9371293817        4.1323597390
 C        -1.9947268037        3.0809204954        2.5805875984
 C        -1.6322255303        4.4804645035        1.9479994515
 C        -0.1157540134        4.5900484925        1.9373460353
 C         0.7043322541        4.2541414504        0.7123217234
 C        -2.2642009843        4.7680805492        0.5640389363
 C        -2.0820450416        5.6344762656        2.8735322674
 O        -2.0042978816        2.0831287799        1.9344435438
 O         0.4724612151        4.6176525294        3.0708777441
 C         2.1612469197        4.7604007070        0.8580186577
 C         2.2388572901        6.2704442642        0.3993618132
 C         3.6641127070        6.7073154070       -0.1536825662
 C         4.7506140299        5.8090231923        0.4694497656
 C         5.4553450880        4.6595920508       -0.2839088650
 O         1.3138599931        7.0400495254        0.4237106377
 O         5.0680823986        5.9393481229        1.6344646658
 C         3.6154409385        6.5658145923       -1.6582531713
 C         3.9951488043        8.1504234275        0.2176782373
 H        -9.5706915401       -5.0503299960       -4.4974185520
 H       -10.2142373724       -3.3125362486       -4.5794279729
 H        -9.8228682627       -4.2261423886       -6.0521935553
 H        -4.4872287926       -2.5587851547       -6.5910463753
 H        -5.9331641742       -2.0505535497       -5.6229783079
 H        -7.0615286315       -6.2230848941       -4.9177663922
 H        -6.1070013718       -6.2307284986       -6.4975935522
 H        -7.9752990630       -6.2366367383       -6.6265613519
 H        -7.7723234571       -2.7960821697       -7.3875638569
 H        -6.4586511849       -3.7500972480       -7.9560194625
 H        -7.8548455391       -4.5091624539       -7.9525371231
 H        -4.4330361311       -2.1760653474       -3.6414379182
 H        -2.9905838162       -2.8288662482       -4.5485076622
 H        -1.9305208994       -0.4979792781       -2.2446143844
 H        -2.3360794992        0.6653794060       -1.1327957337
 H        -4.5157393410        2.5420266404       -3.8893766520
 H        -3.5021357869        2.1382963454       -5.2360158547
 H        -2.7173370401        2.0457682919       -3.5632225798
 H        -5.9644150104       -0.7027092610       -4.3822205966
 H        -6.2804513077        0.7372963667       -3.5138295003
 H        -5.7904555050        0.8545044285       -5.2325483519
 H        -3.1521756944       -2.2686730546       -1.0503964389
 H        -3.9063409040       -1.1923689486       -0.0322227021
 H        -0.2088263958       -5.4557172328        1.8990554186
 H        -1.0309422325       -5.0316835119        0.5027836150
 H        -3.4025782523       -1.6992461189        2.9058298086
 H        -1.7306299011       -0.9952640936        3.0579168217
 H        -2.0294039002       -2.4388142886        3.8012019947
 H        -3.8230772457       -2.9122117989        1.1358796852
 H        -2.8528002549       -4.1483906499        0.2002066118
 H        -3.1810880314       -4.3480909560        1.9318668158
 H         1.6000596738       -3.6231498556        0.7188441122
 H         1.7465700707       -5.4413317893        0.7460515240
 H         3.7942354452       -2.6700038635       -3.0829700660
 H         2.3118593220       -2.0908509215       -2.3442519853
 H         3.2333746778       -6.3967633665       -0.5532724935
 H         3.8554836300       -6.6128809542       -2.1335315471
 H         2.2117398443       -7.1633300629       -1.7176247667
 H         1.6777734270       -3.9139181779       -3.6492016837
 H         2.9256749157       -5.1493919574       -4.1654590887
 H         1.2359319751       -5.5687189285       -3.6108497657
 H         4.6983720973       -0.7879977900       -2.0183864329
 H         5.0546898203       -2.2503530026       -0.9781969061
 H         5.0175748786        0.1250766762        3.4926592281
 H         5.5091143216        1.6013953701        2.7597568613
 H         4.5193817298       -1.6791719211        3.2129081119
 H         4.5583399153       -2.8568376931        1.8168451916
 H         3.1119842166       -2.1950128396        2.1762229885
 H         5.9528468302        0.0522326980       -0.0361014984
 H         6.3108128696       -0.1067219319        1.6598178714
 H         6.4152180156       -1.5329637782        0.7681751639
 H         4.3396632620        1.8397874711        4.9825296501
 H         3.2709191969        2.5786408007        3.7906756210
 H        -1.2850965494        2.2650686231        5.9202305461
 H        -0.3892392372        3.5454154009        5.0854304886
 H         0.0943549410        0.5763972442        6.8164956158
 H         1.7177674252        0.2107254810        7.1052316492
 H         0.9381786649       -0.6319987121        5.8937893122
 H         2.9320683490        2.5488001182        6.4794834375
 H         2.0126580931        3.5089659811        5.0979277049
 H         1.2631025300        3.0422248056        6.7065994523
 H        -2.6507973309        3.8221056877        4.5688221310
 H        -2.6911602115        1.9668110791        4.1992922628
 H         0.6480675431        3.1945913278        0.4515128944
 H         0.2818805770        4.9553339270       -0.0900389256
 H        -3.3426100956        4.9488632058        0.7516835979
 H        -2.0759097300        3.9950202567       -0.2430124845
 H        -1.8560486418        5.7041804011        0.1617709650
 H        -1.4391959986        5.6381050269        3.7527107202
 H        -2.0777130940        6.6173877168        2.4965067622
 H        -3.1118231503        5.5502838146        3.2457194176
 H         2.4402908656        4.7470956937        1.9620626710
 H         2.8068566181        4.1148007554        0.3076592993
 H         5.0465819900        4.4410827711       -1.2611675214
 H         6.5506359322        4.8387208678       -0.4462064359
 H         5.4596758607        3.8545462592        0.4537814521
 H         4.5207306788        6.9889362694       -2.1398377310
 H         2.6848802937        7.0333396163       -2.0986432708
 H         3.5201670175        5.5033246347       -1.9774356490
 H         3.3942734569        8.9196997284       -0.3731058832
 H         3.8830669296        8.2051754268        1.3120049172
 H         5.0855114219        8.2406380298       -0.0721925077
 Na        1.0275304196       -0.4429452874        1.6624080506
