155

 C        -9.9038011346       -3.7488654399       -4.1719953082
 C        -8.4078117380       -3.3661336421       -4.4548508458
 C        -7.5286621911       -4.3646220423       -5.3490273764
 C        -6.0620686855       -4.2303716729       -4.9801010893
 C        -5.1934350898       -2.8171631084       -5.4995564561
 C        -7.9062408598       -5.8682033894       -5.2651811290
 C        -7.7501206685       -3.9133041021       -6.8195445997
 O        -7.9187142166       -2.3477248180       -4.0946054790
 O        -5.4380312213       -5.0147107446       -4.3228267739
 C        -4.9674426089       -1.9736155356       -4.2389792364
 C        -4.1150216805       -0.7281091711       -4.4794646562
 C        -4.4108646722        0.5445131492       -3.4244055652
 C        -4.2983037811        0.1505927742       -1.8302580645
 C        -2.9564023324       -0.3697057918       -1.2767661769
 O        -3.1561995968       -0.6943447863       -5.2063691151
 O        -5.3672218489        0.1480311883       -1.2988037486
 C        -3.3298000645        1.5994980443       -3.8621120130
 C        -5.8424805983        1.2513611334       -3.6630729272
 C        -3.1276450999       -0.7546611391        0.1704544831
 C        -1.7675533284       -1.0963440340        0.8265111838
 C        -1.5002530557       -2.3997725373        1.6612730583
 C        -0.1862544753       -3.0072630354        1.0976077723
 C        -0.3360311104       -3.6304824485       -0.3221204457
 C        -1.2463187832       -1.9438385545        3.1412697519
 C        -2.6805055694       -3.5141869121        1.5846687638
 O        -0.8425745589       -0.3666557136        0.6052238295
 O         0.9402851085       -2.8722929943        1.6172439499
 C         0.8665472867       -4.5349762699       -0.5061471903
 C         1.1212970928       -4.9569060864       -1.9512810184
 C         2.7926803715       -5.1945168384       -2.1423179255
 C         3.5166888776       -3.8359938660       -1.8177183094
 C         3.0455189674       -2.4779666837       -2.4165729665
 O         0.4356169867       -5.0805381701       -2.9113599043
 O         4.3633725585       -3.8752111257       -0.8827870392
 C         3.3138699637       -6.2522967706       -1.1322504051
 C         3.1819563747       -5.6890698971       -3.6743022508
 C         3.9520150888       -1.3132546052       -1.7811041172
 C         3.5292291674       -1.1607745687       -0.2621183451
 C         4.4165151642       -0.6977307906        0.7918742451
 C         3.7515953847        0.5860392074        1.5500584651
 C         4.5239110556        1.1077534753        2.7994326942
 C         4.5449974879       -1.9333412701        1.7061597429
 C         5.8733262673       -0.2778076096        0.3422290300
 O         2.2884977351       -1.2195059318       -0.1006338604
 O         2.8984738466        1.2813509630        1.0029932339
 C         3.4951486633        1.6734548750        3.7523098666
 C         2.4512560678        0.7759687227        4.3075830260
 C         1.3980019449        1.2747031989        5.3541787073
 C         0.1317205693        1.7084459082        4.5025222153
 C        -0.8223101216        2.6319858577        5.0489799170
 O         2.3600918901       -0.3374385681        3.8052127549
 O         0.0491545201        1.3480984896        3.3228494035
 C         0.9735572048        0.1818830600        6.2870439395
 C         1.8825482808        2.5720930867        6.0746799378
 C        -2.1818105013        2.7433858253        4.3911510576
 C        -2.1781785380        3.2401500917        2.9746969738
 C        -1.7109330839        4.5474265879        2.4418820584
 C        -0.1461138833        4.3576877168        2.0776295614
 C         0.3937441284        4.8383208584        0.7492478688
 C        -2.5333919101        4.9433322151        1.1602784176
 C        -1.8515492260        5.7831641325        3.4054872844
 O        -2.4466204698        2.3927204932        2.1304761838
 O         0.5844233176        3.9721702226        2.9688405807
 C         1.9347315266        4.7509089544        0.6699404439
 C         2.5660009888        6.1208903778        0.2283805287
 C         4.0396562851        6.2534458904       -0.3881534018
 C         5.1300936035        5.2280329862        0.2812492417
 C         6.1865615494        4.4631934566       -0.6294646036
 O         1.9284670774        7.1683511078        0.3233808032
 O         5.2449719236        5.2164185154        1.4866909546
 C         3.9458383528        5.7604657902       -1.8067686633
 C         4.6157761914        7.6320755449       -0.2233141266
 H        -9.8927521498       -4.7367917332       -3.6088369461
 H       -10.1982223914       -3.1639068346       -3.4074400753
 H       -10.5449765599       -3.7793856305       -5.0568051175
 H        -4.3132932666       -3.2903538953       -5.9165808115
 H        -5.8166908751       -2.3253173523       -6.2594449058
 H        -7.6382631335       -6.1492815973       -4.2553412691
 H        -7.3747789919       -6.3794765386       -6.0533427261
 H        -8.9341725288       -5.9849666441       -5.3530900989
 H        -7.9764046164       -2.8001155367       -6.9889485877
 H        -6.7905382227       -4.0929203502       -7.3630452602
 H        -8.6726734744       -4.2887106690       -7.2480642275
 H        -5.9402810821       -1.7920359055       -3.7773833224
 H        -4.3432330716       -2.6342746648       -3.6078135438
 H        -2.7946397891       -1.3083990572       -1.8454624314
 H        -2.0859102982        0.3477073325       -1.3832312652
 H        -3.7233592811        2.5891976310       -3.8484238534
 H        -2.8789135917        1.2523176507       -4.7337844478
 H        -2.6871110726        1.6347664116       -3.0380619907
 H        -5.9426740524        2.1872194172       -3.1473913760
 H        -6.0469798033        1.4464654162       -4.7106890757
 H        -6.6592897662        0.5992051075       -3.2510774803
 H        -3.7990348872       -1.6398667865        0.1782176077
 H        -3.5946338836        0.0364299517        0.7807216344
 H        -1.2709401277       -4.2080547841       -0.3932855919
 H        -0.1616151092       -2.7082777725       -1.0306090611
 H        -0.7867144763       -0.9355265920        3.2772801292
 H        -0.5151821316       -2.6749121303        3.5707788833
 H        -2.2140631573       -2.0001304154        3.5752716751
 H        -3.4954644984       -3.0975558929        2.1634847193
 H        -3.0241397889       -3.6091300962        0.5289863184
 H        -2.2930801658       -4.3623720118        2.0671588757
 H         1.8294018530       -3.9665473424       -0.2247109429
 H         0.8368420165       -5.3732028486        0.1766082444
 H         2.9969192054       -2.5150524152       -3.5383335548
 H         2.0264769104       -2.2133485835       -2.0563770095
 H         3.0154951220       -5.9204731518       -0.1331449988
 H         4.3863056598       -6.4506647056       -1.1100584111
 H         2.8090117998       -7.2317567134       -1.3177855299
 H         3.5361045316       -4.7675091395       -4.2331771923
 H         3.8698601290       -6.5021478748       -3.5348724791
 H         2.2433911029       -6.0728182113       -4.0824861707
 H         3.5847134705       -0.3440744419       -2.0680845299
 H         5.0437335402       -1.4006155003       -1.7903561760
 H         5.1695489568        0.3636032151        3.2877226596
 H         5.1843219761        1.8661020504        2.3963225741
 H         5.0159532456       -1.8120744686        2.6737894293
 H         5.1702868631       -2.7031589707        1.1400212458
 H         3.5480852595       -2.3329533565        1.9126603534
 H         5.9203884617        0.5551450295       -0.3104616442
 H         6.5045874079       -0.0815599895        1.2091572791
 H         6.2613728123       -1.1195748180       -0.2438962032
 H         3.8541975365        2.3533085300        4.5506203736
 H         2.8039479365        2.2433696263        2.9902839917
 H        -0.9350935779        2.4847548117        6.1006696114
 H        -0.1929047023        3.6295031602        4.9599477859
 H         0.2406470240        0.6547453054        7.0363633305
 H         1.8471826419       -0.2128178779        6.8706564877
 H         0.4377377053       -0.7464809205        5.8505724224
 H         2.8182489890        2.4389433501        6.4995042632
 H         2.0170754212        3.3333145264        5.3870580618
 H         1.1294566174        2.9458311381        6.8598676305
 H        -2.7940912491        3.4986658826        4.9331615711
 H        -2.8417534382        1.8823292184        4.4041058239
 H        -0.0444539883        4.2124869191       -0.0126408548
 H         0.0185167120        5.8973756942        0.6382143208
 H        -3.5574931009        4.9196145681        1.5121255278
 H        -2.4703986062        4.1218145246        0.4564828101
 H        -2.3399883880        5.8761833482        0.7008554358
 H        -1.2161903691        5.5709573157        4.2811956845
 H        -1.3815281912        6.7055169712        2.9708235835
 H        -2.8568220633        6.0854549312        3.7971319877
 H         2.4781953674        4.3423683376        1.5311109760
 H         2.1891837222        3.9848506662        0.0451418902
 H         5.6569854411        3.7454564440       -1.2105016680
 H         6.6863405275        5.1933181226       -1.2934261534
 H         6.8842541531        3.9281831917        0.0015797747
 H         4.9646590080        5.8292635097       -2.2020181437
 H         3.2692334462        6.3819727518       -2.4405544615
 H         3.6529872372        4.7309659953       -1.7849323593
 H         4.3033377424        8.2691841235       -0.9840682935
 H         4.3611579726        8.0453802437        0.7580852155
 H         5.6584557012        7.5001896654       -0.1929505245
 Na        1.1146056338       -0.3308173224        1.7208312972
