155

 C       -10.3846484717       -3.7788176399       -3.4864761269
 C        -9.1361516238       -3.2817615602       -4.1905816118
 C        -8.1517268239       -4.3175527341       -4.8351102501
 C        -6.7178945743       -3.8110213228       -4.3895436717
 C        -6.1200036631       -2.5055906513       -4.8132581901
 C        -8.4314462189       -5.7228082299       -4.2043436415
 C        -8.2571146988       -4.3543916508       -6.4108167836
 O        -8.9106972692       -2.0638746410       -4.2167579708
 O        -5.9691167898       -4.5785594615       -3.7868663834
 C        -5.7963470605       -1.5682054175       -3.6605303602
 C        -4.4552198546       -0.6704753450       -3.8609372614
 C        -4.4935616054        0.7182649596       -3.1372243914
 C        -4.3756774140        0.3062612234       -1.6357681240
 C        -3.0749143215        0.6121521474       -0.7766011167
 O        -3.5054520818       -1.0707933252       -4.5693854360
 O        -5.3085338842       -0.2450864612       -1.0566080055
 C        -3.3320407738        1.6156923271       -3.7260632203
 C        -5.8249302333        1.4372098845       -3.4173577289
 C        -3.1357859519       -0.4580550382        0.4807601461
 C        -1.7780384378       -1.0667739747        0.8261282011
 C        -1.6747719195       -2.5666845149        1.2880496581
 C        -0.2933142141       -3.0216729398        0.8529475932
 C        -0.1195735378       -3.9650616698       -0.3385760096
 C        -1.5657280433       -2.4407239038        2.8453908641
 C        -2.9352466687       -3.4365936185        0.8152929390
 O        -0.8141080068       -0.3755269203        0.5447498859
 O         0.7413689521       -2.6488976226        1.3268689753
 C         1.3336933055       -4.3892595765       -0.5543118647
 C         1.6556954657       -4.7247070238       -2.0075735218
 C         3.1108296610       -5.2842393344       -2.2427022636
 C         3.8752131497       -3.8649961367       -1.8561742897
 C         3.4300166818       -2.6261368933       -2.6506606758
 O         0.8238164325       -4.6142001403       -2.8968634504
 O         4.7176801015       -3.9549599453       -0.9887959770
 C         3.5233369529       -6.5299279301       -1.3607706994
 C         3.1549664617       -5.7813362403       -3.7842932944
 C         4.1009860160       -1.3554298884       -2.0828998716
 C         3.5626064031       -0.8111775100       -0.7498579805
 C         4.5011534228       -0.2689272167        0.4855556011
 C         3.8116452338        0.8899179966        1.1917602925
 C         4.5527057356        1.5684049179        2.4001983267
 C         4.9229576616       -1.4902274620        1.4159591161
 C         5.8776543240        0.3090867428       -0.0424104027
 O         2.3979691721       -1.1112966746       -0.5930584713
 O         2.7176461220        1.2782997817        0.8697776993
 C         3.6102569210        2.1390718968        3.4612455884
 C         2.7073490978        0.9517970408        3.9060060295
 C         1.7335700231        1.1976001960        5.1996552489
 C         0.3384294375        1.2680021784        4.4815386962
 C        -0.6634586637        2.3182704090        4.9773148991
 O         2.7509092047       -0.1485103524        3.4618980761
 O         0.0394835625        0.6182151317        3.5414420012
 C         1.8526346481       -0.0245782646        6.1811888505
 C         2.1189656360        2.4944872359        5.8987435483
 C        -2.0783683448        2.5299953741        4.1767634200
 C        -2.1045649790        3.3035989257        2.8211526938
 C        -1.5152214736        4.7507355073        2.6184072505
 C         0.0154617875        4.5547852907        2.2483619207
 C         0.6585091367        5.1518205392        0.9597957922
 C        -2.3610810111        5.6190612925        1.5458725505
 C        -1.4935450377        5.4975795483        3.9185381371
 O        -2.7962592220        2.8652248004        1.9225449410
 O         0.7295939106        3.9027102600        2.9229286013
 C         2.0269460940        4.6192815687        0.6523433748
 C         2.9227909719        5.8422819657        0.2739393080
 C         4.2645960514        5.6037264626       -0.5930914057
 C         5.1761871571        4.5715092808        0.0649633072
 C         6.6341462605        4.7798423141        0.2511559398
 O         2.5006632004        6.9514921959        0.4583478468
 O         4.6990494015        3.4803091523        0.3434644034
 C         3.6361646051        5.1020456600       -2.0112505322
 C         4.9542284716        6.9775607116       -0.8050944613
 H       -10.0998905766       -4.2863403983       -2.6013930925
 H       -11.1813607739       -2.9491367954       -3.3462983705
 H       -10.9041048990       -4.5549876307       -3.9987504295
 H        -5.2099708138       -2.7574471083       -5.2686366840
 H        -6.7228379847       -1.8813682516       -5.4577467938
 H        -8.8216919301       -5.5528790054       -3.2008887682
 H        -7.5360285233       -6.2474832861       -4.0351763069
 H        -9.0792214619       -6.3245787678       -4.8631347754
 H        -8.1075282096       -3.4082442771       -6.7430756893
 H        -7.4904451661       -5.0457648804       -6.8474977932
 H        -9.1166869564       -4.8929003662       -6.7393366478
 H        -6.5927293039       -0.8150758612       -3.4645961785
 H        -5.7808794848       -2.0923282923       -2.7053401510
 H        -2.1431882464        0.5820715914       -1.3173248481
 H        -3.1991738535        1.6113086993       -0.3742749661
 H        -3.5489882308        2.6954153962       -3.4467820614
 H        -3.3680126141        1.6747828515       -4.8407301736
 H        -2.3640077411        1.1611120940       -3.4312880348
 H        -5.8617718996        2.4956651236       -3.0908230395
 H        -6.0803241142        1.4053076439       -4.4717283647
 H        -6.6615624138        0.9295864265       -2.9119054324
 H        -3.8945923152       -1.2675803599        0.1502049904
 H        -3.5743131163        0.1527737668        1.2835403468
 H        -0.7438196370       -4.7979941846       -0.1528689698
 H        -0.5994398642       -3.5834605967       -1.1959589908
 H        -1.1697672649       -1.4719741255        3.1863875241
 H        -1.0429466769       -3.2474958876        3.1974924384
 H        -2.6055577625       -2.5324301272        3.2340197297
 H        -3.8451653761       -2.9206928446        1.1774933618
 H        -2.8446031693       -3.4029854376       -0.2745167304
 H        -2.8772314391       -4.5131940362        1.0908308558
 H         2.0235191000       -3.7173077898       -0.1953302468
 H         1.5114872004       -5.2568992625        0.0414633701
 H         3.9053785658       -2.7070094624       -3.6430809564
 H         2.3683540200       -2.4560648473       -2.7848437243
 H         3.3395798977       -6.2884094304       -0.2877242633
 H         4.4479282274       -7.0678069271       -1.5535151685
 H         2.6973917974       -7.1853507009       -1.5313926096
 H         3.2825378110       -4.9770301310       -4.5877766534
 H         4.0537100227       -6.3583067701       -3.8317039186
 H         2.2825006771       -6.3944399606       -3.9079243592
 H         4.2379148658       -0.5759213275       -2.8394345815
 H         5.1354906856       -1.5323003934       -1.8155740294
 H         5.1597677735        0.8583546039        2.9919265795
 H         5.2371140863        2.3056825829        2.0034439742
 H         5.3411648156       -1.1416948110        2.3697263330
 H         5.7407646967       -2.0913981243        0.9660073418
 H         4.0784696741       -2.1507952146        1.6301259521
 H         5.7488462445        1.4130659190       -0.3101611739
 H         6.7872413401        0.1586478919        0.5181739693
 H         6.0650069863       -0.2064660553       -0.9681809071
 H         4.0833634565        2.4992661412        4.3029789216
 H         2.9954870815        2.9643414079        3.0553533934
 H        -0.8863618450        1.9163076775        5.9578333388
 H        -0.0833722775        3.2872568856        5.1826021560
 H         1.1723702925        0.0812600385        6.9527838226
 H         2.8129744065        0.0050526311        6.6278000628
 H         1.6930717830       -0.9438692314        5.6678209821
 H         3.0926795597        2.3536753822        6.3418888339
 H         2.1532343051        3.3902070083        5.2409695990
 H         1.5168907736        2.6929937978        6.7537767172
 H        -2.7368101741        3.1199898241        4.8214283161
 H        -2.6728298688        1.6051936674        3.9640116531
 H         0.0291358222        4.9486542011        0.1420224404
 H         0.7619549171        6.2437375682        0.9481193985
 H        -3.3813803606        5.6856255820        2.0107551903
 H        -2.4066034626        4.9696536226        0.6676862809
 H        -1.9801548097        6.6669546115        1.3036390213
 H        -0.8942220071        4.9256465013        4.6101285803
 H        -1.0162676024        6.4851014184        3.7440780412
 H        -2.4928239701        5.6322010370        4.3216993434
 H         2.6298709361        4.1444343000        1.5173357902
 H         1.8974989456        3.8847845763       -0.1118322590
 H         7.1577670120        4.2664262432       -0.5901798258
 H         6.9825199832        5.8034213504        0.3424303995
 H         6.9917366137        4.2682984085        1.1668924526
 H         4.4138750543        4.5230875721       -2.5234238000
 H         3.4405982484        6.0279189019       -2.4941570762
 H         2.7031219027        4.5852367027       -1.8248059972
 H         4.3656293158        7.5310363017       -1.6303429868
 H         4.9633330614        7.6099030401        0.0727443032
 H         5.9733543213        6.7990185988       -1.2865704422
 Na        1.1732917230       -0.4704413603        1.4710228049
