155

 C       -10.7909487231       -3.2911708632       -2.8886783834
 C        -9.7861682330       -3.0895061373       -3.9688398544
 C        -8.6331698063       -4.1289381724       -4.0954089356
 C        -7.3684701382       -3.6640471353       -3.1319298741
 C        -6.2594270290       -2.6665561363       -3.7083865590
 C        -9.0099573575       -5.5121753685       -3.6264498413
 C        -8.1981577926       -4.1300783070       -5.5556335185
 O        -9.8628523327       -2.0963304387       -4.7087852948
 O        -7.2584166239       -4.0358995667       -1.9835395504
 C        -6.4880083146       -1.3017229070       -3.0198972023
 C        -5.4972977719       -0.3972256258       -3.6670300449
 C        -5.2364673892        0.9390674914       -2.8872574748
 C        -4.6673124953        0.6240550519       -1.4221924596
 C        -3.2157821227        0.0769166737       -1.2289456117
 O        -4.8258967094       -0.6703382980       -4.7190126676
 O        -5.4118425641        0.7548449999       -0.4935026717
 C        -4.1978844763        1.7435134604       -3.6952535004
 C        -6.5290528673        1.8093867845       -2.8952395838
 C        -3.1789051530       -0.5919187925        0.1560708418
 C        -1.7835038368       -1.1796100748        0.6274598939
 C        -1.7690714101       -2.6443282880        1.2596186773
 C        -0.2709017401       -3.1484536846        1.1847758278
 C         0.1314424941       -3.6151645209       -0.2411102254
 C        -2.3246089688       -2.7873077007        2.6347712308
 C        -2.6884126645       -3.6414272336        0.3630223701
 O        -0.8322414575       -0.4856472625        0.5102188799
 O         0.5079888130       -2.8250431364        2.0903351925
 C         1.4685303722       -4.3922367180       -0.5319963663
 C         1.6326826236       -4.8241671014       -1.9532964365
 C         3.1007526035       -4.9736752901       -2.5722968426
 C         3.9489377898       -3.7773557230       -2.0932700067
 C         3.6990853079       -2.4011045001       -2.7673748420
 O         0.6186129424       -5.0549844422       -2.5620380813
 O         4.8549480641       -3.9311303846       -1.2460224640
 C         3.5634060464       -6.1995687479       -1.8447124450
 C         3.0262928777       -5.1098759702       -4.1235672799
 C         4.4534905491       -1.2741069150       -2.0599227683
 C         4.0753753085       -1.1333142132       -0.5919150127
 C         4.9824163556       -0.2991092785        0.3631779239
 C         4.2772872135        0.8077253744        1.0664324524
 C         4.9787826502        1.4805737425        2.2991153273
 C         5.6489643468       -1.2818726388        1.3571041783
 C         6.1782782107        0.4155886868       -0.3735707236
 O         3.0466209584       -1.6328427235       -0.2338908801
 O         3.2104764940        1.1332666087        0.5639863944
 C         3.9450275992        1.8610108616        3.3923937605
 C         3.0579872110        0.6412629303        3.8305457609
 C         1.8513527505        0.8273133073        4.8242550007
 C         0.4118213580        1.2492444094        3.9023469978
 C        -0.8255026362        1.7177272065        4.7896986583
 O         3.2294430880       -0.4374442598        3.2451550713
 O         0.4213215361        0.9092366588        2.7892465384
 C         1.4782433129       -0.5340153871        5.4574267131
 C         2.0888118938        1.8917867534        5.8507425176
 C        -2.0102505018        2.1855229856        3.8508560763
 C        -1.4135257668        3.0551297568        2.6221094252
 C        -1.1220674896        4.5757761446        2.9652744037
 C         0.4291592371        4.5826498913        2.3989682690
 C         0.8799010902        5.2372401035        1.0842777680
 C        -2.1393797808        5.6703933258        2.2936897114
 C        -1.1544848609        4.8869465916        4.4586054963
 O        -1.3182652547        2.6490451599        1.5159790474
 O         1.1989861452        3.9910264404        3.1757462577
 C         2.2957694565        4.6767869328        0.6185496065
 C         3.1755718251        5.8612438496       -0.0672058972
 C         4.1237335077        5.5774080453       -1.2861181567
 C         5.3782604398        4.6862788821       -0.7084503798
 C         5.9453578807        5.2211801372        0.5880823082
 O         2.9205176555        7.0068520860        0.2849385960
 O         5.8461794485        3.7774662617       -1.3312938676
 C         3.4242151935        4.7891791265       -2.3803866615
 C         4.6284020041        6.9515562998       -1.7799603036
 H       -10.3821730184       -3.4553411804       -1.8940855264
 H       -11.4521747962       -2.3586851967       -2.6906666998
 H       -11.4219973496       -4.0739847989       -3.1373955333
 H        -5.2327985071       -2.8241500160       -3.5277249457
 H        -6.2750513953       -2.6523043684       -4.7562722146
 H        -9.0145714891       -5.6124183970       -2.5892669427
 H        -8.4382272759       -6.2265278149       -4.0679786744
 H        -9.9768595852       -5.8857076134       -3.9077398628
 H        -8.1043805570       -3.1193638866       -5.8417843672
 H        -7.2179315231       -4.6972127020       -5.7259383076
 H        -9.0060378142       -4.5093950844       -6.0906407604
 H        -7.5341456111       -1.0636840182       -3.1357731255
 H        -6.3280950769       -1.1656910562       -1.9542580701
 H        -3.0276750878       -0.6635169260       -2.0005561833
 H        -2.4012979678        0.8146830162       -1.3258628221
 H        -4.5419765511        2.7967512270       -3.9078846106
 H        -3.8534840410        1.2668260029       -4.6022231185
 H        -3.2808223739        1.9571481132       -3.1493384692
 H        -6.3425616910        2.8204245386       -3.1514995201
 H        -7.2808785875        1.4290129174       -3.5969081848
 H        -6.9023862948        1.7738216586       -1.8446506285
 H        -4.1069205973       -1.0935220309        0.3597432634
 H        -3.2973640727        0.2543372903        0.9458481725
 H        -0.5705481704       -4.2258377042       -0.7475548492
 H         0.2058900276       -2.6793907997       -0.7792130114
 H        -1.7210796861       -2.3269556085        3.3915545773
 H        -2.3754496359       -3.7898885177        2.9148109565
 H        -3.2788494278       -2.3224806212        2.6043583216
 H        -3.7673736549       -3.4893990012        0.4179106852
 H        -2.5778633569       -3.4631704600       -0.7633125480
 H        -2.3528557908       -4.6287295997        0.5901188483
 H         2.2853196067       -3.7416671460       -0.1941004253
 H         1.5536225978       -5.2428049920        0.0059331392
 H         4.0249486513       -2.3860948805       -3.8321440862
 H         2.5971698227       -2.3056772442       -2.8304790020
 H         3.6393493682       -6.1841132390       -0.7822016344
 H         4.5442614673       -6.4531878313       -2.1457117801
 H         2.8977819863       -6.9576034115       -2.2006762305
 H         2.0220886100       -4.7361701311       -4.5039199144
 H         3.7623667810       -4.5539424184       -4.6416757813
 H         3.0535979136       -6.1373295318       -4.4788182497
 H         4.2631897961       -0.3042137958       -2.4608046397
 H         5.5402427952       -1.4447872797       -2.2263020863
 H         5.6851378545        0.8872430414        2.8275439145
 H         5.5578635039        2.3525239701        1.9506202033
 H         6.6308629469       -0.9801217703        1.7719411779
 H         5.8373315739       -2.2730127465        0.8230643304
 H         4.9645466379       -1.4564235724        2.1970596256
 H         6.0748982411        1.4930111983       -0.3109290904
 H         7.1864989159        0.1452678204       -0.0432825458
 H         6.1192270049        0.2577740415       -1.4558697106
 H         4.4417798549        2.3198136463        4.2952529420
 H         3.2802973573        2.5860455574        3.0201403342
 H        -1.0566921912        0.8352633977        5.4409019440
 H        -0.4866536010        2.5076692410        5.3597268916
 H         0.6399549595       -0.3154665240        6.0604701801
 H         2.2849212458       -0.7783825158        6.1033672972
 H         1.2018645197       -1.3247570890        4.7716139310
 H         2.9177654775        1.7692024860        6.4802434124
 H         2.1407574338        2.8844218610        5.3830942019
 H         1.2982539581        1.9166789926        6.5407362264
 H        -2.5989352195        2.9106452589        4.4559054457
 H        -2.5900117767        1.4246128572        3.3423351777
 H         0.0893488738        5.0550473451        0.3070476124
 H         1.0338864118        6.3165453468        1.1351981916
 H        -3.1682177707        5.3919862382        2.5285703226
 H        -2.0415924457        5.6000476334        1.2020998087
 H        -1.8267673954        6.6628293090        2.5702600324
 H        -0.3668132830        4.3564903541        4.8640027512
 H        -0.7559664934        5.8819958803        4.4309525323
 H        -2.0736557762        4.7184180012        4.9431192953
 H         2.8173960871        4.3131229658        1.5214907444
 H         2.1708809806        3.9118057568       -0.1684538942
 H         5.7098678472        6.2415391946        0.7482735533
 H         5.5116809746        4.7625776938        1.5059582079
 H         7.0107942467        5.0769655945        0.6683279580
 H         4.0977876596        4.2022116170       -2.9588766223
 H         2.8677269834        5.5243810133       -2.9691039813
 H         2.7996925707        4.0707006141       -1.9499615121
 H         3.7746231396        7.6749665842       -2.0535427247
 H         5.2715506811        7.5294111615       -1.1271860419
 H         5.3491368313        6.7585005717       -2.6287010286
 Na        1.5196126013       -0.7466350219        1.4448877898
