155

 C       -10.8184264055       -3.1279913705       -2.6686854316
 C        -9.8237752485       -3.0313249278       -3.8269682977
 C        -8.6868661403       -4.0495160815       -3.9487815012
 C        -7.5730251746       -3.7103904940       -2.9242878266
 C        -6.3671436732       -2.7611697715       -3.3952162926
 C        -9.2755766811       -5.4287443712       -3.5459568292
 C        -8.1002101923       -4.1936349165       -5.3703935042
 O       -10.0149177857       -2.2795660329       -4.7192381155
 O        -7.7252061816       -4.0425416224       -1.7867446421
 C        -6.5456318374       -1.2811682030       -3.0373000072
 C        -5.4659523578       -0.2831316132       -3.6813748256
 C        -5.2020539516        1.0073793423       -2.7535312549
 C        -4.6275184818        0.8105106321       -1.3492647315
 C        -3.4524423640       -0.2167004749       -1.3524914516
 O        -4.9491384911       -0.4974725011       -4.7156195054
 O        -5.2117232607        1.1281084949       -0.3211749537
 C        -4.1997512856        1.9156331662       -3.4104593446
 C        -6.5973399351        1.7261418583       -2.5882440771
 C        -3.1907020207       -0.6745340702        0.1361463720
 C        -1.8503917739       -1.1958111046        0.5239300194
 C        -1.8002981585       -2.6505834244        1.0686548153
 C        -0.2695473407       -3.0895813793        1.0070415476
 C         0.1335383262       -3.4354723690       -0.3851487384
 C        -2.1572436139       -2.4689641181        2.6195678085
 C        -2.7314581773       -3.6228057712        0.3350445677
 O        -0.7786600869       -0.5836895943        0.4324029604
 O         0.5143079576       -2.7800160492        1.8619298809
 C         1.4232432591       -4.4189079759       -0.4883316181
 C         1.7025684891       -4.9592375715       -1.9081346613
 C         3.1313778777       -5.1354360260       -2.5815503550
 C         3.8801788706       -3.7952905317       -2.0489616430
 C         3.7029188219       -2.4928542593       -2.7783840617
 O         0.7106791035       -4.9479010815       -2.6186315257
 O         4.7251026132       -3.8416345397       -1.1850418673
 C         3.7409423297       -6.3918092707       -2.0220139598
 C         2.9734887103       -5.1380721408       -4.0475525576
 C         4.4664470609       -1.3563722672       -2.2082471411
 C         4.2116318400       -1.0871721836       -0.6745919365
 C         5.1246342213       -0.2865635131        0.2788311780
 C         4.2757946923        0.8279018173        1.1462697078
 C         4.9453977282        1.4961986409        2.3326743567
 C         5.6961852707       -1.3415746105        1.2183341923
 C         6.2814850320        0.4143751148       -0.4346036007
 O         3.0584358652       -1.3272493631       -0.3054339941
 O         3.1590680201        1.1063888543        0.7800063779
 C         3.9296786501        1.6950772808        3.5077358032
 C         3.0155918604        0.4793807242        3.7926371040
 C         1.7741577626        0.6952826884        4.7662037270
 C         0.5914385107        1.1177270338        3.8437556224
 C        -0.7309663030        1.6790491030        4.6263550023
 O         3.2173408580       -0.6198536813        3.3677845297
 O         0.4238730388        0.6677922794        2.6906730681
 C         1.4677790789       -0.7461190802        5.3558244963
 C         2.1792655849        1.6634423758        5.8420918034
 C        -1.8583910446        1.9964525325        3.7230893021
 C        -1.3661886100        3.0711775709        2.6332278016
 C        -0.9626231586        4.5543830788        2.9423722048
 C         0.5701098225        4.6692713136        2.5893235916
 C         0.8867404797        5.3090671193        1.1966453168
 C        -1.8717464609        5.5095723205        2.1248194065
 C        -1.0401597524        4.9883198145        4.4492611821
 O        -1.5626895910        2.9176408833        1.4335459817
 O         1.3748285465        4.1099326587        3.3048701291
 C         2.2418634357        4.7910227837        0.6733350358
 C         2.9778972600        5.8620344933       -0.2143387684
 C         4.0410517083        5.5705117012       -1.3525446880
 C         5.2835622812        4.7868720054       -0.7029736749
 C         6.1307743945        5.3503009776        0.4508860020
 O         2.7295523586        7.0243539165        0.0357526005
 O         5.8662361747        3.9230570002       -1.3748038270
 C         3.4885551492        4.7111745134       -2.4680597312
 C         4.6123428529        6.8605544410       -1.8787286054
 H       -10.3601974675       -3.4005909711       -1.7186481709
 H       -11.2702842447       -2.2781615166       -2.3512641611
 H       -11.5913408720       -3.9281447535       -2.9028943579
 H        -5.4061425870       -3.0226472245       -2.8429530401
 H        -6.1508253415       -2.9263868689       -4.4885746951
 H        -9.3618763243       -5.6235441222       -2.4173271415
 H        -8.7493845541       -6.3319277332       -3.9576081105
 H       -10.2099642133       -5.6732176588       -3.9452693567
 H        -7.8810405361       -3.1702492820       -5.8282377754
 H        -7.1848310755       -4.7004796436       -5.2007761002
 H        -8.7561743295       -4.8635312337       -6.0083218008
 H        -7.5129999067       -1.0988377657       -3.5076594629
 H        -6.7007860224       -1.0473225743       -1.9920688376
 H        -3.7136715238       -1.0199063538       -2.1074102502
 H        -2.4753221771        0.2171772963       -1.6748057740
 H        -4.6178089657        2.5696902298       -4.1884436844
 H        -3.3809035500        1.2808177856       -3.9030786404
 H        -3.6199397243        2.5617314213       -2.6959264067
 H        -6.3745963163        2.8135900331       -2.7600781813
 H        -7.2705758460        1.4371334718       -3.3990584574
 H        -7.0007101711        1.6087873323       -1.6029838956
 H        -3.9231332052       -1.4531316878        0.4642289689
 H        -3.5291788836        0.1478624244        0.6993434003
 H        -0.5949358851       -3.8069030141       -1.1462122716
 H         0.5234277972       -2.4022651474       -0.6742060138
 H        -1.1874986908       -2.3729847170        3.1334770598
 H        -2.5858409468       -3.4700995441        3.0399628784
 H        -2.8220657699       -1.6394645149        2.8951539808
 H        -3.7064129217       -3.3312581296        0.6437413962
 H        -2.8653930855       -3.6139924878       -0.7004872893
 H        -2.4550040473       -4.6584771023        0.6190628904
 H         2.1940057350       -3.8114915635        0.0218869543
 H         1.2814715161       -5.3525667129        0.2512590356
 H         4.1318155981       -2.7469389161       -3.7574430502
 H         2.6519781023       -2.3501039872       -3.0370840334
 H         4.0686702768       -6.1539274272       -1.0203142689
 H         4.7344156629       -6.5729921073       -2.4615587383
 H         3.1183282949       -7.2888500771       -2.1170785344
 H         3.1489829689       -4.2766291119       -4.6689591042
 H         3.6109987235       -6.0031243765       -4.5101118610
 H         1.9221836406       -5.4757573708       -4.3138318350
 H         4.0822863508       -0.3104055663       -2.5205128294
 H         5.5151504298       -1.4991626188       -2.5219573166
 H         5.8004558791        0.8984900510        2.7484184707
 H         5.4047309221        2.4496762933        2.0956188537
 H         6.5106559380       -1.0638185699        1.8419241904
 H         6.1589389837       -2.0408398170        0.6070483805
 H         4.8916695132       -1.7824504921        1.7928861920
 H         6.4500108149        1.4405725529       -0.1251041683
 H         7.2205250503       -0.1446067603       -0.3192655924
 H         6.0920971355        0.4319214615       -1.5119641602
 H         4.4403861421        1.9360903562        4.4327328767
 H         3.3257510825        2.6572425987        3.2511041916
 H        -0.9231236678        0.9164195252        5.3346259085
 H        -0.3411272535        2.6694406353        5.2761568105
 H         0.6104388173       -0.7454983124        6.0472118945
 H         2.3276887614       -1.0309944272        5.9311167368
 H         1.0915176785       -1.3575829304        4.5615438501
 H         3.1457363978        1.4373855890        6.2649522588
 H         2.2175508808        2.6520321579        5.5063106953
 H         1.4787571080        1.6421926634        6.7691519223
 H        -2.7392057690        2.4398216752        4.1767144742
 H        -2.1184191945        1.0988105969        3.1039781253
 H         0.1309220256        5.0744895635        0.4891894897
 H         0.9692430931        6.3963565696        1.3074996084
 H        -2.9052296082        5.4764201954        2.4884004275
 H        -1.8467832235        5.3466862835        1.0387672527
 H        -1.3516370424        6.4640655507        2.2844796993
 H        -0.0992303668        4.5579812969        4.9182438953
 H        -0.9518234651        6.0740250302        4.5022746716
 H        -1.9248426531        4.4180271839        4.8336866213
 H         2.8749004689        4.6385469458        1.5461549841
 H         2.1763466331        3.8172503397        0.1861201353
 H         5.9513087246        6.4360248359        0.6935364808
 H         6.1443332191        4.9141152237        1.4403123122
 H         7.1763637231        5.2796903431        0.0727304954
 H         4.2806290519        4.5687134504       -3.2283106567
 H         2.5083704704        5.0326376236       -2.8418105366
 H         3.3885140161        3.6399252825       -2.0866008096
 H         3.8320482170        7.4956295016       -2.0832112114
 H         5.1003229210        7.4555514547       -1.1043052581
 H         5.3020037406        6.8255897713       -2.6616772835
 Na        1.6230084527       -0.7424814712        1.3763000874
