155

 C       -12.2134745397       -0.9255401634       -0.9850374033
 C       -11.2944753704       -1.8708989798       -1.6731825991
 C       -10.6046487226       -3.0255479138       -0.8671019630
 C        -9.3957049563       -2.3343643186       -0.1968494995
 C        -8.2485342943       -1.7193388525       -1.0747828312
 C       -11.6357752587       -3.6375801797        0.1400821257
 C       -10.1624610834       -4.0729080548       -1.9580721693
 O       -10.8362630874       -1.6473614263       -2.7423974003
 O        -9.3963357648       -2.1636616513        1.0165781318
 C        -7.7841746017       -0.4122886582       -0.4059466491
 C        -6.4296777044       -0.0113277054       -0.9364374347
 C        -5.9739367064        1.4496396473       -0.6555375267
 C        -4.5604379585        1.2901260921        0.0505884401
 C        -3.4723583598        0.6361684512       -0.7481061074
 O        -5.6329487453       -0.7873606949       -1.4032176826
 O        -4.4023018404        1.4839193420        1.2209462576
 C        -5.8709818208        2.0846885919       -2.0515081213
 C        -6.8579102504        2.2084747927        0.3811359154
 C        -2.4656345207       -0.0552615088        0.2195579118
 C        -1.2468740446       -0.7263971625       -0.4460052885
 C        -1.4670482513       -2.1665672925       -1.1303259932
 C        -0.0870994558       -2.9727941478       -1.1087405341
 C         0.1863674012       -4.0138649702       -2.2584330263
 C        -2.6207780313       -3.0264536294       -0.6530962183
 C        -1.7992230500       -1.6089922224       -2.6115405943
 O        -0.1228216691       -0.1997217995       -0.5783312104
 O         0.7142949731       -2.7886908145       -0.2457367819
 C         1.2839661577       -5.0428723709       -1.8226684661
 C         2.0962212719       -5.4437842054       -3.0274210143
 C         3.7211944622       -5.6927207360       -3.0230416979
 C         4.3025009398       -4.3277137917       -2.5645636217
 C         3.7971221034       -3.1121162217       -3.2710820307
 O         1.6067927046       -5.4308101478       -4.1267993985
 O         4.9220502447       -4.1918734878       -1.5324688758
 C         4.0115663917       -6.6926289314       -1.9394690555
 C         4.1947714898       -6.1843070509       -4.4159489830
 C         4.6398075904       -1.8330528880       -3.0448514193
 C         4.3507841131       -1.4059018839       -1.6097870896
 C         5.3281147463       -0.5224565300       -0.9168272823
 C         4.5282648711        0.6527158156       -0.1367260345
 C         5.3955108375        1.5264571844        0.8641997151
 C         6.0425622816       -1.4768873761        0.0613014061
 C         6.4205853120        0.1225927607       -1.7280637158
 O         3.3360270061       -1.7299727249       -1.0510284592
 O         3.3458533654        0.8915227955       -0.4089739424
 C         4.5777502394        1.7202343262        2.1401061414
 C         3.8295120586        0.4718881066        2.7320018192
 C         3.1025533978        0.5599468415        4.0618523992
 C         1.5448679738        0.8081276187        3.7578256468
 C         0.6025518305        1.3963865307        4.8390860017
 O         3.8118469380       -0.6126279486        2.1165173554
 O         0.9838218870        0.2472419181        2.8311855177
 C         3.1631380023       -0.8771948334        4.7137595106
 C         3.7319871064        1.6601528219        5.0160561577
 C        -0.8044133942        1.7596477286        4.3100203723
 C        -0.8627841055        2.8336811463        3.1156955837
 C        -0.2287025885        4.3652061555        3.3373271825
 C         0.9731131509        4.1270271444        2.3270982984
 C         0.7170092107        4.2439237425        0.8078369831
 C        -1.1952906036        5.3477243642        2.7821377805
 C         0.0179906247        4.6571686676        4.7975084105
 O        -1.3463091532        2.5184567999        2.0663714281
 O         1.9469055903        3.6069994564        2.7410152308
 C         1.8818636529        3.8338426477       -0.0762269412
 C         2.6238131127        5.0299355959       -0.7231217226
 C         3.5710119193        4.9501569521       -2.0107984540
 C         4.8950065047        4.4089297765       -1.4191728665
 C         5.8225268685        5.3905171536       -0.6704735944
 O         2.6289261047        6.0796862482       -0.2093438163
 O         5.1442922131        3.2078334385       -1.4317143431
 C         2.9898853362        3.8740693804       -2.9862687554
 C         3.7141149038        6.3848090260       -2.6458432133
 H       -13.2048474526       -0.9581035146       -1.4475653626
 H       -12.3460560699       -1.1091469740        0.1216877322
 H       -11.9808656065        0.1120481948       -1.1916271689
 H        -7.3778941752       -2.4711533084       -1.0744853677
 H        -8.5477467669       -1.6824654885       -2.1845194598
 H       -11.7457986310       -2.8349203947        0.9598341580
 H       -11.1953293674       -4.5603857861        0.6393978068
 H       -12.5421454918       -3.8125822152       -0.3563062323
 H        -9.9995316034       -3.6110325258       -2.9389417131
 H        -9.2140197640       -4.5996860192       -1.6344993073
 H       -10.8625471979       -4.8243464748       -2.0505579234
 H        -8.5837663960        0.3799051309       -0.6441592495
 H        -7.8298666700       -0.6257982462        0.6846808497
 H        -3.9545667996       -0.0381440419       -1.4665055915
 H        -2.9249994085        1.4198148329       -1.2132798906
 H        -5.0044276765        1.6330400708       -2.6092161692
 H        -5.6529161613        3.1940192225       -2.0155635709
 H        -6.8349744002        2.0477656742       -2.5477146726
 H        -6.8743406478        3.2269871819       -0.0195719859
 H        -7.9177510950        2.0662003929        0.4424886845
 H        -6.3644442866        2.2854470409        1.3109614315
 H        -2.9526210402       -0.8660116277        0.7054050130
 H        -1.9846652307        0.6406943197        0.8717538644
 H        -0.7560039607       -4.4922823475       -2.4515364726
 H         0.4649849371       -3.5017940251       -3.1714695262
 H        -2.5660715810       -3.1429948382        0.4598441365
 H        -2.6621695727       -4.0162473695       -1.1966293616
 H        -3.5749016488       -2.6240942509       -0.8981949980
 H        -2.8299851134       -1.2822373590       -2.5627653049
 H        -1.1570620352       -0.7667832589       -2.9409250037
 H        -1.7090308702       -2.4620141858       -3.3254932897
 H         1.8576836189       -4.5627444548       -1.0906143537
 H         0.8328595359       -5.8817745848       -1.3499737505
 H         3.5993979033       -3.4066112941       -4.3289193750
 H         2.8018247406       -3.0756362663       -2.8155057494
 H         3.7094127938       -6.2860450964       -1.0180889670
 H         5.0443594583       -6.9176827965       -1.8949745235
 H         3.6028372474       -7.6551983241       -2.0518157889
 H         4.8279219839       -5.3666585992       -4.8955736568
 H         4.7599354867       -7.0805483931       -4.2288450499
 H         3.3140069020       -6.5771372844       -4.9607141655
 H         4.3222766099       -1.0955581780       -3.7111109677
 H         5.6918976372       -2.1409088245       -3.1347230234
 H         6.3668708384        1.0939101148        1.0760000249
 H         5.5699691563        2.4510745055        0.2711218474
 H         6.7318239368       -1.0222910888        0.8430629655
 H         6.7589749335       -2.0122367036       -0.5713089230
 H         5.3318502518       -2.1097486385        0.6376093745
 H         6.1053647695        1.1354410536       -1.8463233424
 H         7.4336479605        0.1035898019       -1.2917021524
 H         6.5270142034       -0.2398451684       -2.7455773578
 H         5.3135503725        2.0518356528        2.9425408280
 H         3.7530583032        2.3736429826        2.1084145665
 H         0.5716624121        0.5980228381        5.7480913262
 H         1.1084004433        2.1893463302        5.2561901067
 H         2.4553257719       -1.1313218429        5.4878454067
 H         4.0983189449       -0.9344270052        5.1843465209
 H         3.0429075057       -1.6238582996        3.9125868096
 H         4.9076522598        1.6664828226        4.9190033306
 H         3.4857779724        2.6763361212        4.8249787673
 H         3.4413686920        1.4080496884        6.0366368078
 H        -1.2859061309        2.1353926503        5.2417549086
 H        -1.1970163169        0.8227902836        3.9027281949
 H        -0.1072954014        3.4646465851        0.7011322301
 H         0.3462484013        5.2430525901        0.5246158445
 H        -1.9954479587        5.3789014126        3.4886550030
 H        -1.5821357641        5.1676508026        1.7795003906
 H        -0.7270560941        6.3324483328        2.7452245046
 H         0.8448876596        4.1063666402        5.1806134772
 H         0.3116618302        5.7008705527        4.8412348401
 H        -0.9167076939        4.5322310527        5.3747773782
 H         2.6933964522        3.4374613418        0.6298993341
 H         1.6700273220        3.0668491854       -0.7627577154
 H         5.2785814930        6.2295853343       -0.2382738615
 H         6.3611837433        4.8809311452        0.1618602409
 H         6.5712783773        5.7092519399       -1.3906357192
 H         3.6327567862        3.9263869234       -3.8442170904
 H         2.0305909879        4.0933636374       -3.3385848866
 H         2.9905103010        2.8943209263       -2.5406167284
 H         2.7400520274        6.5585745932       -3.1902825808
 H         3.9179477358        7.0696764756       -1.8336891365
 H         4.4578665604        6.3822833718       -3.4848878514
 Na        1.9133037018       -0.6790614913        0.7007479310
