155

 C       -12.3735784203       -0.8523793253       -0.8117747874
 C       -11.4408732258       -1.8074664151       -1.6042139320
 C       -10.6994076376       -2.8993231224       -0.7780387770
 C        -9.4932436889       -2.1713932444       -0.0816472884
 C        -8.3774503792       -1.6186763459       -0.9740331984
 C       -11.5097119201       -3.5063123307        0.3723842202
 C       -10.2080088098       -4.1537861539       -1.6406890774
 O       -11.2110614418       -1.5571659486       -2.8064448098
 O        -9.4947806923       -2.0356522868        1.1091164170
 C        -7.9446549883       -0.3075374643       -0.3790110317
 C        -6.5350504892        0.0029611851       -0.7615042514
 C        -6.0226476822        1.5134871374       -0.4336174997
 C        -4.5267982247        1.3257161344        0.2414794219
 C        -3.3817526021        0.7306412675       -0.5214005694
 O        -5.8230410281       -0.8390513867       -1.3213602175
 O        -4.4088609164        1.5028355112        1.4528514169
 C        -5.7920458456        2.1983199249       -1.8153743716
 C        -6.9243897393        2.3928296787        0.4589031200
 C        -2.2553677196        0.0525508447        0.3203924432
 C        -1.0783301239       -0.6450084315       -0.6192019902
 C        -1.2523876802       -2.0197902834       -1.4475599801
 C        -0.0933702385       -3.0554705912       -1.0371449098
 C        -0.0136615020       -4.3002791317       -2.0107853482
 C        -2.4626552559       -2.7421127597       -0.7265567587
 C        -1.4877349717       -1.8936420656       -2.9284911862
 O        -0.0280281825       -0.0930094434       -0.7236042364
 O         0.6373732628       -2.9210399397       -0.0542864120
 C         1.3076049581       -5.1323557695       -1.8510714456
 C         2.0656194570       -5.5831202040       -3.1732995306
 C         3.5866757898       -5.7736034912       -2.9763318251
 C         4.2355414622       -4.3569087624       -2.5807692790
 C         3.8786295510       -3.1376103837       -3.4394052771
 O         1.6219279449       -5.2933605487       -4.2673616730
 O         5.1208112145       -4.1913282406       -1.7594351031
 C         4.0077193431       -6.8450038817       -1.9710103709
 C         4.1996287620       -6.1054726593       -4.3640104583
 C         4.6144363094       -1.9240731017       -3.0244237200
 C         4.4622526835       -1.4937390362       -1.5901397453
 C         5.4339050035       -0.6029150322       -0.9173216523
 C         4.7005518196        0.5082159521       -0.0090792300
 C         5.4972491114        1.4039272524        1.0463615421
 C         6.3391882862       -1.5353586877       -0.0400681260
 C         6.3502628997        0.2960299895       -1.8670679088
 O         3.4193876343       -1.8095960634       -0.9831549240
 O         3.5959578948        0.8490719478       -0.3445439786
 C         4.5634007928        1.8118586715        2.1564283174
 C         3.8623822978        0.4940616609        2.5259720028
 C         2.9763667356        0.4340583093        3.9115237858
 C         1.4697334038        0.6306378266        3.6510149700
 C         0.7836043876        1.5221557260        4.6660027520
 O         4.0912464403       -0.5351275290        1.9472276245
 O         0.9949456994        0.1188805520        2.6718274184
 C         3.1269980328       -0.9255736562        4.6112104502
 C         3.5046573353        1.5183447393        4.9988356557
 C        -0.7230758096        1.8892114816        4.4449319122
 C        -0.8643860584        2.7025045416        3.1811634901
 C        -0.2351298448        4.2263638191        3.1610594821
 C         1.0175033481        3.9892522365        2.2674252313
 C         0.7635674621        4.3566397705        0.8352904590
 C        -1.3675019502        5.1321763196        2.5447659709
 C         0.3838353088        4.8482566737        4.4554146786
 O        -1.3396981687        2.3412505680        2.1184240970
 O         2.0663998741        3.4528098772        2.7222519768
 C         1.8564246501        3.9380920759       -0.1407700487
 C         2.5629655716        5.2029833771       -0.6581927392
 C         3.3937409704        4.9932602897       -1.9901934169
 C         4.7749523230        4.3404774490       -1.4255437747
 C         5.6725596888        5.3542941483       -0.7112175583
 O         2.5096204585        6.2345551480        0.0341416058
 O         5.0628824349        3.1747640932       -1.5138459042
 C         2.7413589420        3.9645569984       -2.8950461082
 C         3.6439805619        6.2484775324       -2.6927000816
 H       -13.0984689836       -1.2257113607       -0.0945150864
 H       -11.7474878021       -0.1366131254       -0.3013168799
 H       -13.0321048599       -0.3592079479       -1.5736424126
 H        -7.6637600639       -2.3756011957       -1.0259052258
 H        -8.7299064958       -1.5978574135       -1.9577242626
 H       -11.9960356179       -2.7564166577        0.8848005147
 H       -10.8427826433       -3.9522300264        0.9990491834
 H       -12.2547483709       -4.2627367245        0.0488470598
 H        -9.5480273815       -3.8172655670       -2.4307284631
 H        -9.7235742542       -4.8282066751       -1.0250024719
 H       -11.0172832595       -4.6409248708       -2.2916102095
 H        -8.7447117038        0.3572829264       -0.4809966115
 H        -7.8662839929       -0.6142165727        0.6720334176
 H        -3.9398951799       -0.0629645313       -1.0312465462
 H        -2.7661642547        1.4339096956       -1.1574988719
 H        -5.4087400351        1.6234923141       -2.6206560335
 H        -5.0463597168        2.9701263978       -1.6958103650
 H        -6.6941741980        2.8104400650       -2.0511501891
 H        -7.8689912477        2.7789899225        0.0681144954
 H        -7.2355804852        1.7685145722        1.3060423091
 H        -6.2943228906        3.2204944363        0.9172806759
 H        -2.7065946095       -0.7634939686        0.8936407687
 H        -1.5778036167        0.6873467010        0.9371266537
 H        -0.9782341878       -4.9306578897       -2.0025793589
 H         0.0836477882       -3.8594986810       -3.0410032587
 H        -2.2434875305       -3.0414742293        0.2892426517
 H        -2.8651382211       -3.5725870282       -1.3099007385
 H        -3.3343205934       -2.0259996546       -0.6766873306
 H        -2.1948505906       -1.0346882693       -3.0144015063
 H        -0.5644804634       -1.7159088154       -3.4342693685
 H        -2.0887494510       -2.7080955258       -3.3364024006
 H         2.0280416263       -4.5362348314       -1.2038839766
 H         1.0789177210       -6.0037616062       -1.2062192327
 H         4.0263254957       -3.4082027864       -4.4654002895
 H         2.7945952768       -3.0235978780       -3.3421156482
 H         3.4666305841       -6.9246391006       -0.9775745331
 H         5.1053474796       -6.6982733117       -1.8587429550
 H         3.9956416492       -7.9152643467       -2.2844840353
 H         3.8052148819       -5.4080139731       -4.9989378825
 H         5.2400372598       -5.8450219206       -4.3062854634
 H         4.1596344380       -7.1416781355       -4.6362986032
 H         3.9890487064       -1.0883699078       -3.4963319994
 H         5.6457165384       -2.0343657103       -3.3725846950
 H         6.2892860926        0.7574456910        1.4470627532
 H         5.9508907579        2.2821743475        0.6014364959
 H         6.9950309706       -1.0035990102        0.5728693309
 H         6.9582509091       -2.2644063938       -0.5364032723
 H         5.6045109754       -1.9205579758        0.6293494848
 H         5.6766785387        0.8606869414       -2.5744688122
 H         6.9819097529        0.9396706008       -1.2942235544
 H         7.0359795719       -0.3107979076       -2.4641574092
 H         5.0877738342        2.1717966457        2.9865877824
 H         3.7117918739        2.5226221981        1.8551198202
 H         0.9676452677        1.1584363338        5.5857063565
 H         1.4634896610        2.4769043501        4.5958351360
 H         2.4640826935       -1.0050456923        5.4424070497
 H         4.1551092638       -1.1811496582        4.9163709951
 H         2.7688607841       -1.6426567358        3.9253177471
 H         4.4241762318        1.1674809997        5.3035541764
 H         3.7036547396        2.5423584007        4.6775168159
 H         2.9755669370        1.5484226459        5.9115138224
 H        -0.8663407438        2.5510467082        5.2736675903
 H        -1.2752962359        0.9507149625        4.3793542892
 H        -0.1980384925        3.9567993863        0.5994625393
 H         0.7222724253        5.4707120119        0.8853509696
 H        -2.1792586346        5.1982231173        3.3012917393
 H        -1.8080938424        4.6524894485        1.6840756180
 H        -0.9838141185        6.1142856315        2.2117860750
 H         1.4783980390        4.5300345193        4.5817623612
 H         0.4399793711        5.9737109597        4.4499732136
 H        -0.2402451054        4.5065349934        5.3206630099
 H         2.4443355579        3.1666781028        0.2638436897
 H         1.3755996717        3.5191754644       -1.0932247405
 H         5.1306983391        6.2554696081       -0.3742432460
 H         5.9882460395        4.8750328024        0.2068122563
 H         6.5740608617        5.5105618515       -1.3279869469
 H         3.1651946093        3.9246128382       -3.8974692233
 H         1.6408069735        4.1965583738       -2.9811442841
 H         2.6968755896        3.0042299232       -2.4111078798
 H         2.9113034036        6.4531241514       -3.4638446377
 H         3.7323715833        6.9862449121       -1.8649779125
 H         4.5556250723        6.1384895322       -3.2994386019
 Na        1.8176467163       -0.7191333762        0.4946207235
