155

 C       -12.9396045437        0.6602359429        1.4469164565
 C       -11.9800493190       -0.4949403858        1.0029277775
 C       -10.9968889371       -1.1142047951        2.0156230398
 C       -10.0523604823       -0.0277687876        2.5703402029
 C        -9.1709696407        0.6883638507        1.5387659611
 C       -11.9219959751       -1.6758587915        3.1357311966
 C       -10.2239418992       -2.2744152273        1.3281040091
 O       -12.0336474251       -0.8602673730       -0.1236338791
 O        -9.9105206385        0.3665861099        3.7138384817
 C        -7.7096652635        0.6185213530        2.0407641825
 C        -6.6656235036        1.3560288291        1.2091724168
 C        -5.2091343690        1.2042646889        1.6356358419
 C        -4.6358108623       -0.1036214797        0.9186143800
 C        -3.4218554790       -0.0495462680       -0.0187659606
 O        -6.9354494131        1.8643918926        0.0952830941
 O        -5.2202269742       -1.2233165510        1.0838964462
 C        -4.4291057956        2.4559268784        1.3468633855
 C        -5.0404270207        0.9692210886        3.1692714235
 C        -2.8823243705       -1.4377181454       -0.5143498753
 C        -1.4530882216       -1.5035422954       -0.8889992280
 C        -0.8894742001       -2.6629174432       -2.0009139680
 C         0.0609389466       -3.6104930251       -1.1544150547
 C        -0.0039232615       -5.1331486834       -1.2446558748
 C        -2.0046578935       -3.4436716256       -2.8277557489
 C        -0.1139789917       -1.9159762393       -3.0176383530
 O        -0.6012967978       -0.7482704720       -0.4670506455
 O         0.9932561591       -3.0523538436       -0.5929227957
 C         1.3661719463       -5.9123753103       -1.2836660087
 C         1.8636139904       -5.9191879174       -2.7733454054
 C         3.3260273455       -6.2195383164       -3.0191424617
 C         3.9994516671       -4.7575139528       -3.3724450868
 C         3.5248404328       -4.0641593325       -4.6142137434
 O         1.0928014306       -5.6910581817       -3.6374407906
 O         4.9781208780       -4.3827079835       -2.7499823824
 C         4.1124132350       -6.6574398376       -1.8354274927
 C         3.4666172547       -7.2001810455       -4.2445333279
 C         3.9080560404       -2.5766092648       -4.6269687240
 C         3.7130215987       -1.8733984093       -3.2791214393
 C         4.7764105758       -0.7600291826       -2.8589826371
 C         4.3057223077        0.0239877032       -1.5140431589
 C         5.2340840554        0.8449836912       -0.5651461564
 C         6.1899770672       -1.4439288398       -2.7182581366
 C         5.0064128691        0.3715244515       -3.9463406176
 O         2.6931903206       -2.0573171710       -2.6505395896
 O         3.1090587814        0.3108804454       -1.5557443761
 C         4.9454902470        0.8897226327        0.9331599340
 C         4.1622504032       -0.3262295249        1.4055510766
 C         3.4954100378       -0.2296950866        2.8841854141
 C         1.9627205714        0.2888611138        2.5951238951
 C         1.3036327385        0.9106453652        3.8841211959
 O         3.8861195558       -1.3536582086        0.7190992910
 O         1.3007240958       -0.0096353233        1.6246165346
 C         3.4456241489       -1.7123080614        3.4283277921
 C         4.2681742056        0.6273067929        3.8656014654
 C        -0.1976671986        1.2753400824        3.6500594270
 C        -0.4251441011        2.3551028178        2.5646915358
 C         0.2528877722        3.7825673763        2.8013484288
 C         1.4716164329        3.9013662767        1.9803787582
 C         1.3390044750        4.3853145378        0.5755150660
 C        -0.7545971504        4.9180559934        2.3728414857
 C         0.4470470906        4.0915370238        4.3221584219
 O        -1.1834749953        2.1776410620        1.6049416620
 O         2.5379801639        3.3351643112        2.3143966847
 C         2.6923584861        4.4330195006       -0.1325292745
 C         2.5853798050        5.2843298470       -1.3955220130
 C         3.9113437477        5.5389370059       -2.1612809375
 C         5.0627005976        6.2880239240       -1.1883533183
 C         4.9734948820        7.7395540192       -1.0483210598
 O         1.5300645537        5.5868023977       -1.8532351722
 O         5.7741678251        5.5000379453       -0.5662442827
 C         4.4245294164        4.1961671893       -2.7386538346
 C         3.5401304317        6.4732348565       -3.3661393450
 H       -13.4281173614        0.9649555637        0.5667343194
 H       -13.6549441024        0.3335228420        2.2443167032
 H       -12.2017367903        1.3672991307        1.7806117824
 H        -9.1381978185        0.0837395078        0.5734007387
 H        -9.5681715549        1.6400837412        1.4184102038
 H       -12.6397633824       -0.8393420145        3.4332358061
 H       -11.2727275766       -2.0387432864        3.9387231450
 H       -12.4546483802       -2.5622669111        2.6212963887
 H       -10.8416955972       -2.7442826336        0.5551663744
 H        -9.2628126528       -2.0850305299        1.0014501857
 H        -9.9979771540       -3.0415953918        2.0678543411
 H        -7.7886588650        0.8009018061        3.0715164382
 H        -7.5003639658       -0.4908158321        1.9130767568
 H        -3.4260245429        0.6175420049       -0.9256490508
 H        -2.6610907510        0.1379308009        0.7032795801
 H        -4.7397487672        2.8912211558        0.3915237048
 H        -3.3352925252        2.1994800213        1.4153376365
 H        -4.6390843702        3.3387932748        2.0316429508
 H        -5.4149326222        0.0182131843        3.4530121941
 H        -3.9356763490        1.0284718496        3.2790607149
 H        -5.4583374077        1.8542783466        3.6749706048
 H        -3.4259029482       -1.8452595853       -1.4066429453
 H        -3.0128491044       -2.1314361665        0.3220895468
 H        -0.5720596190       -5.5601846359       -0.4225432782
 H        -0.6075694808       -5.4678173496       -2.1000375697
 H        -2.3648348764       -4.1959550429       -2.1607065423
 H        -1.5543748912       -3.9310336860       -3.7401222724
 H        -2.6453136809       -2.6797867867       -3.0909726530
 H        -0.7829165592       -1.6130817184       -3.8556233811
 H         0.3988748300       -0.9809675772       -2.6256043849
 H         0.6135894122       -2.4752794063       -3.6135092814
 H         2.1351684633       -5.4350418257       -0.6429558969
 H         1.2030187888       -6.9914585769       -1.1275328377
 H         3.8189739421       -4.5439916447       -5.5630592790
 H         2.4615880486       -4.1664165557       -4.6633715497
 H         4.3629933642       -5.8260042867       -1.2321371558
 H         5.0670595991       -7.1041894459       -2.0985693428
 H         3.5443934669       -7.2781400292       -1.1954699962
 H         2.6874814337       -7.0917196846       -4.9468637330
 H         4.4772490802       -7.2111313105       -4.6474761186
 H         3.2677311263       -8.1807502146       -3.9351071191
 H         3.3002133611       -2.0351510779       -5.3923486044
 H         4.9281436267       -2.5168719375       -5.0352471000
 H         6.2639887627        0.7220048798       -0.8965896770
 H         5.0975264623        1.8505403103       -0.9468457754
 H         6.7708264042       -0.7435268832       -2.1597275632
 H         6.4997538748       -1.6386882323       -3.7611453197
 H         6.2679406372       -2.3474308143       -2.0579162453
 H         4.2382008866        1.1722241655       -4.0641618283
 H         5.9452960633        0.8433217122       -3.7952305203
 H         4.9130796956        0.0052037720       -4.9685847115
 H         5.9488373960        0.8659728625        1.4406536397
 H         4.3933954238        1.7980666801        1.2550312327
 H         1.3506865945       -0.0593039771        4.5995623846
 H         1.9041234621        1.7988860935        4.2684520676
 H         2.9818993629       -1.8001942144        4.4239564260
 H         4.4738608214       -2.1146086679        3.5621264168
 H         2.8950587723       -2.3563178473        2.6683221098
 H         5.2661087972        0.2235330457        3.9073012865
 H         4.5227862560        1.6699387312        3.5359681101
 H         3.8029577855        0.7208698257        4.9470270116
 H        -0.6775004572        1.5093548151        4.6066904218
 H        -0.8025315596        0.4116780567        3.4009462245
 H         0.5638806996        3.8132825099        0.0776057558
 H         1.0437168290        5.4051696205        0.5860634557
 H        -1.6332094237        4.7722424751        3.0002494604
 H        -1.1083919886        4.8894743834        1.3788657665
 H        -0.3291917501        5.8948698879        2.5825174188
 H         1.1977864661        3.5020466248        4.8559951631
 H         0.8265148365        5.1320917762        4.4312203089
 H        -0.5650719914        3.8811731972        4.8534059574
 H         3.5639229100        4.9386794804        0.3964914071
 H         2.9115953620        3.4006027335       -0.3432251348
 H         3.9394149126        7.8287023912       -0.7082011551
 H         5.7484653572        7.9828707996       -0.3634582705
 H         5.0631625551        8.2722937352       -1.9988043255
 H         5.0109602278        4.4033549738       -3.5717953995
 H         3.5683016542        3.6073948495       -2.9920505735
 H         5.0654059222        3.5809929513       -2.1953058444
 H         3.1935572347        5.7684719888       -4.1084123044
 H         2.5990487790        7.0179134313       -3.1660001125
 H         4.3440250927        6.9887742826       -3.7408267588
 Na        1.6425896535       -0.9503550864       -0.6044559840
