155

 C       -11.7156361259        2.0464541425        2.2696754735
 C       -10.8004271461        0.7633435360        2.0979564619
 C       -10.6869202484       -0.2799001351        3.2117095815
 C        -9.1276296383       -0.1868626869        3.7078773380
 C        -8.1313519613       -0.7681031377        2.6862136258
 C       -11.5334913896       -0.2049951064        4.4458063788
 C       -11.0385590682       -1.6749055731        2.5451757817
 O       -10.0866719209        0.7348862078        1.0848873354
 O        -8.8199744051        0.2684862587        4.8138195183
 C        -6.7764445224       -0.0780009446        2.9576690654
 C        -6.2638359522        0.9438525168        1.9601064333
 C        -4.5745562776        1.0315050734        1.9126197986
 C        -3.9843494078       -0.1488791479        1.1441147781
 C        -3.6302281971       -0.0405993015       -0.3334097269
 O        -7.0026340148        1.6578844406        1.3515163463
 O        -3.9536601314       -1.2581300706        1.6683367851
 C        -4.0582293841        2.3672546139        1.2233210180
 C        -4.0008719218        1.0439111550        3.3784704566
 C        -3.3568446466       -1.4382664135       -0.9376339414
 C        -1.8513811378       -1.8473002076       -1.1517035539
 C        -1.5728128413       -3.2531319596       -1.7905668528
 C        -0.3583284274       -4.0789574910       -1.0996536343
 C        -0.4944147968       -5.6476723740       -1.0047883296
 C        -2.9122629807       -4.0244391117       -1.7625540436
 C        -1.2182294558       -2.9686944887       -3.2856261568
 O        -1.0001799529       -1.0856186149       -0.6957956346
 O         0.6241654464       -3.5524069529       -0.6089298524
 C         0.9941070121       -6.1191101491       -1.2069272615
 C         1.2331656220       -6.1932728218       -2.7912454222
 C         2.6994752301       -6.5187902705       -3.3088222162
 C         3.4641809095       -5.2161416322       -3.4736431337
 C         2.9874344742       -4.3135235873       -4.6204621475
 O         0.3322727218       -5.8546748685       -3.5046585657
 O         4.3400397238       -4.8544570684       -2.7134436368
 C         3.5695398949       -7.2935796372       -2.2806982184
 C         2.4763222947       -7.3358830867       -4.5856705127
 C         3.8103476536       -3.0562563632       -4.6201207793
 C         3.4009107141       -2.0762178536       -3.5401712613
 C         3.9946160651       -0.6429206274       -3.6491674405
 C         4.0576996841        0.0333635368       -2.2465233973
 C         5.3813701472       -0.2386800176       -1.4752412806
 C         5.3632371759       -0.4465424495       -4.4533565745
 C         2.9717978726        0.1027388135       -4.4615705861
 O         2.3695165569       -2.2781211714       -2.8923926589
 O         3.0959489762        0.6036329132       -1.7873300141
 C         5.0928965767       -0.0325829862        0.1300808220
 C         4.1556154204       -1.0040705599        0.8010164915
 C         3.7622988809       -0.6309194275        2.2198709789
 C         2.3160571748        0.0773605779        2.1135191539
 C         1.7145353814        0.7814534627        3.4031674366
 O         3.7325243410       -2.0024389249        0.1898948482
 O         1.6824755310        0.1611315084        1.1068557179
 C         3.8403977351       -1.8817366254        3.2041336531
 C         4.6826230371        0.5296917715        2.8381293640
 C         0.1873447962        1.0352302199        3.0532109836
 C        -0.0844049086        2.2297060709        2.1416843039
 C         0.1846214473        3.7384884410        2.5028565507
 C         1.4681104357        4.1386388678        1.7519690564
 C         1.3319374518        4.9374266002        0.4542409310
 C        -1.1332467626        4.4367219907        2.1457819963
 C         0.3662543850        3.9548862113        4.0991063238
 O        -0.6881467543        2.0886722960        1.0912987695
 O         2.5794271364        3.6916887070        2.1366329903
 C         2.5348220108        5.0204349986       -0.5023110985
 C         2.6435129954        6.2783963048       -1.2617802870
 C         3.9091003882        6.4479285050       -2.2599530393
 C         5.1162366736        6.8082920160       -1.2613852917
 C         5.1705777869        8.2381997733       -0.6945713809
 O         1.9009718611        7.2187694084       -1.1433507664
 O         5.6771047060        5.8531500213       -0.7071534695
 C         4.2753612206        5.2151135111       -3.0655461834
 C         3.5370028888        7.5251494409       -3.2324134334
 H       -11.6233627285        2.5816776445        1.3416353373
 H       -12.7694468263        1.7090993119        2.2422148469
 H       -11.4516667890        2.5450003280        3.1680848941
 H        -8.0511727033       -1.8593779578        2.7691324811
 H        -8.4412955647       -0.5330303487        1.6790057374
 H       -11.5302953810        0.6851369643        4.9770153012
 H       -11.1730478107       -0.9645960632        5.1120726747
 H       -12.5139159257       -0.3850717614        4.1942075703
 H       -11.5542128245       -2.2220857302        3.4374745136
 H       -11.7630413225       -1.6146795585        1.7459126520
 H       -10.1800201169       -2.3293887988        2.3046006320
 H        -6.7353026630        0.3002530991        3.9196761329
 H        -5.9979694199       -0.9102465107        3.0605929132
 H        -4.3966877311        0.4954040536       -0.9553221436
 H        -2.7627295220        0.5592453782       -0.4829276958
 H        -4.6036611859        2.4841936978        0.3410874801
 H        -3.0157383927        2.1881927738        1.1681349939
 H        -4.2192463052        3.2629760299        1.8416037446
 H        -4.0816876399        0.1305812509        3.9273714398
 H        -2.9294435537        1.2669633672        3.1846476319
 H        -4.5848898174        1.7819406496        3.9569278382
 H        -3.7713484082       -1.3630109277       -1.9606728933
 H        -4.0255907698       -2.2105886035       -0.4826685415
 H        -0.8780958853       -5.7013894194       -0.0303649106
 H        -1.2021880587       -5.9712155248       -1.8114590217
 H        -3.2271433114       -4.5662920065       -0.7697144265
 H        -2.8177176791       -4.8828632338       -2.4292520756
 H        -3.7324353600       -3.4634844673       -2.0952955148
 H        -2.0443932378       -2.7507343295       -3.8849439992
 H        -0.5628135096       -2.0550495166       -3.2998619162
 H        -0.7963269166       -3.7024895285       -3.9232944992
 H         1.8432707489       -5.5362344806       -0.7131821577
 H         1.1626872761       -7.1046435009       -0.6168940285
 H         3.0818299629       -4.7440412269       -5.6419351733
 H         1.9423209294       -4.0686978342       -4.4945472429
 H         3.8203591027       -6.7981124596       -1.3360051017
 H         4.6049338520       -7.5229618720       -2.7069607822
 H         2.9342195069       -8.1694859229       -2.0023064124
 H         1.8787519419       -8.1658915710       -4.2464689218
 H         2.0805093935       -6.7448090346       -5.4344984675
 H         3.4691976407       -7.6936040414       -5.0004132753
 H         3.7176526736       -2.6049367130       -5.5856320859
 H         4.8867933080       -3.3191916779       -4.5401615159
 H         5.6155438669       -1.3050123950       -1.7159396561
 H         6.0857222871        0.5132951460       -1.8387297797
 H         5.6704279775        0.5571109357       -4.6391059401
 H         5.2831826710       -0.9319639125       -5.4426715441
 H         6.1969547179       -0.9010180342       -3.8870480878
 H         1.9026196015        0.1312430992       -4.0995828815
 H         3.2729816047        1.1277190715       -4.4150093812
 H         2.8352390627       -0.2956178063       -5.4644289414
 H         6.0575755142       -0.0166581338        0.6322776445
 H         4.7884137546        1.0642845442        0.3477534806
 H         2.0476859136        0.1956311299        4.1207901681
 H         2.3147900032        1.7374025961        3.5580453729
 H         2.9810535491       -2.0377151838        3.8246000726
 H         4.6571421010       -1.8466736876        3.8774646077
 H         3.9928488746       -2.7701623205        2.5928037376
 H         5.6994355867        0.1814096611        2.9712152207
 H         4.6329305361        1.4843633148        2.2977363176
 H         4.3747619150        0.5676608424        3.8693412738
 H        -0.2874331691        1.2188484621        4.0384644480
 H        -0.2290108602        0.1257333403        2.6817671872
 H         0.5123703263        4.4899698171       -0.0445168813
 H         1.0190725301        5.9698847818        0.7366879462
 H        -2.0644906063        4.0355326197        2.5039697771
 H        -1.2561039364        4.3677184555        1.1105938577
 H        -1.0913434579        5.4713378222        2.4747820558
 H         1.3512785120        3.6306287200        4.4256076590
 H         0.3182938030        4.9718904172        4.2138674246
 H        -0.3784871268        3.4069315905        4.6487575054
 H         3.3643475085        4.8936588161        0.2299107414
 H         2.5811435898        4.1966758550       -1.2827738632
 H         4.1636593031        8.4093196360       -0.3452272548
 H         5.9516654132        8.2862967677        0.1257774256
 H         5.4354456877        8.9985787837       -1.4216487611
 H         5.2427347036        5.5497842711       -3.3724514672
 H         3.6759520381        4.8988454789       -3.8843802222
 H         4.5372427630        4.4087164797       -2.4035020153
 H         2.5263916692        7.5509693315       -3.6246121275
 H         3.4654432093        8.5446575266       -2.7223334981
 H         4.1629109703        7.6373647065       -4.0529719668
 Na        1.5927305198       -1.3923657686       -0.9384686927
