155

 C       -10.9256097155        2.5348100737        2.9511896948
 C       -10.5274646320        1.0851025078        2.4727176326
 C       -10.3783005187       -0.0418659993        3.5922011969
 C        -8.9209928084       -0.2211076499        3.9404919114
 C        -8.0755057364       -0.8950122321        2.9000413551
 C       -11.2017487300        0.3201795127        4.8467053614
 C       -11.0758839119       -1.2222212372        2.8291731790
 O       -10.5694717375        0.9082840964        1.2783233965
 O        -8.4586368303        0.2382016311        5.0190441230
 C        -6.6028312807       -0.5254382987        2.9636936664
 C        -6.0670638348        0.4500777594        1.9469152936
 C        -4.4772971658        1.0827853414        2.1173991021
 C        -3.6307798300       -0.0781639504        1.5894178653
 C        -3.3226352075       -0.1273187492        0.1105477940
 O        -6.6323838153        0.6963396189        0.9361544904
 O        -3.3145805935       -1.0573337861        2.2853088919
 C        -4.4761807201        2.3419741884        1.2131684863
 C        -4.1885369616        1.3242450905        3.6661251045
 C        -3.1533952403       -1.5899251768       -0.4587960627
 C        -1.7869610980       -1.7995932181       -1.0584259838
 C        -1.5718087752       -3.1815109165       -1.8171509259
 C        -0.4211705760       -3.9611324960       -0.9309764134
 C        -0.5126382561       -5.6151051169       -0.8190356038
 C        -2.7610195033       -4.1575904663       -1.9054425082
 C        -0.9495267935       -2.7674731813       -3.1660929036
 O        -0.8233142390       -1.0630471093       -0.9280024874
 O         0.6090151979       -3.4157625837       -0.5695856543
 C         0.9035628328       -6.2183571014       -1.0038520805
 C         1.2725352114       -6.1371863866       -2.5293801168
 C         2.5387646495       -6.6907961268       -3.2962313907
 C         3.3265075066       -5.4097512614       -3.6625230865
 C         2.8070479474       -4.5026999271       -4.7562247282
 O         0.3853936502       -5.6521216355       -3.1606669825
 O         4.2455233383       -5.0452608223       -2.9886925962
 C         3.3449417399       -7.7036778124       -2.3753537117
 C         2.0915131398       -7.3474715266       -4.6210434084
 C         3.7175732310       -3.2995180932       -4.7449737155
 C         3.1517755771       -2.2250498275       -3.7883733261
 C         3.4924235092       -0.6984604620       -3.8963833755
 C         3.8822294377       -0.0958400623       -2.5182340248
 C         5.3107360964       -0.4113922848       -1.9121363010
 C         4.5695693178       -0.4995986038       -4.9954700188
 C         2.1086172724       -0.1281043167       -4.3116087600
 O         2.2544374727       -2.4996722640       -2.9812815880
 O         3.0655609183        0.4664226333       -1.8130308053
 C         5.1427790616       -0.1807364137       -0.4151732793
 C         4.0897579775       -1.0896260410        0.2398186818
 C         3.6799982466       -0.8169375288        1.8262693245
 C         2.3618548678        0.0560541841        1.7853089336
 C         1.8237714645        0.7720026958        3.1434109977
 O         3.5023949314       -1.9692717952       -0.3370159269
 O         1.7405256197        0.1230855857        0.7776894338
 C         3.2298537081       -2.0970787634        2.4815527685
 C         4.9168701076       -0.1396141535        2.4870081200
 C         0.3948028754        1.1397364909        3.0807767212
 C        -0.0846739744        2.3371169472        2.1929838737
 C         0.1887641173        3.8180913884        2.5548307013
 C         1.5141440371        4.1779518048        1.7381093127
 C         1.4638886448        5.0484463236        0.4884076393
 C        -1.0623244952        4.6534687560        2.1196559358
 C         0.4319060460        3.9554986519        4.0214671228
 O        -0.8256600292        2.0584821456        1.2435407831
 O         2.6593154371        3.8319867598        2.1425540960
 C         2.8567763705        5.4051519875       -0.0980281981
 C         2.6249070690        6.5222206927       -1.1678843709
 C         3.8747500011        6.7997150037       -2.1775661741
 C         5.1416184464        6.8464787422       -1.2078288000
 C         5.4344224055        8.1552192208       -0.5675087123
 O         1.6084839287        7.1171600902       -1.3132193664
 O         5.9127012518        5.8741024759       -1.1109695213
 C         4.1849695652        5.6280575339       -3.0760819034
 C         3.7194984390        8.0893897761       -2.9561458547
 H       -10.8846467406        3.1886301172        2.1181939239
 H       -11.9418019230        2.4312913899        3.3579406342
 H       -10.1264886649        2.8531465080        3.7027547148
 H        -8.2122260117       -1.8844328100        3.1726094748
 H        -8.3713592663       -0.7074684624        1.8683679752
 H       -10.8962154635        1.2550252952        5.3857262341
 H       -11.1478751327       -0.5095294385        5.6023787163
 H       -12.2433243477        0.4208505850        4.6844431979
 H       -11.8744801574       -0.8138187920        2.2892126302
 H       -10.3539820266       -1.6286592703        2.1595114170
 H       -11.3601797113       -2.0340330570        3.5278787590
 H        -6.3043504747       -0.1012776417        3.9756789468
 H        -6.0913518096       -1.4219085185        2.8287100546
 H        -4.2320484031        0.2384491484       -0.2772508230
 H        -2.4100129966        0.4595813230       -0.1325875322
 H        -5.1785955997        2.2327140387        0.3774563020
 H        -3.4295019946        2.4832710671        0.8825705983
 H        -4.6310083071        3.1421947193        1.8528281106
 H        -4.3287395658        0.4176994408        4.3176935150
 H        -3.1567317088        1.6990400773        3.8505836823
 H        -4.8630698027        2.1170443039        4.0214387834
 H        -4.0465648846       -1.7795746622       -1.1350006503
 H        -3.3553366436       -2.3629260128        0.3409405287
 H        -0.8053701841       -5.8176245474        0.2387119380
 H        -1.3150447847       -6.0197355952       -1.4100170310
 H        -3.0575062598       -4.4220545245       -0.9255582833
 H        -2.5771154815       -5.0104170002       -2.6011276849
 H        -3.7298521622       -3.8210229413       -2.2239462089
 H        -1.6478307955       -2.5340509145       -3.9714634701
 H        -0.1634246636       -2.0261739262       -3.0879080656
 H        -0.4473945893       -3.5695406506       -3.5885124991
 H         1.6877385424       -5.8092210110       -0.3875000188
 H         0.8494747938       -7.2945251864       -0.6861512821
 H         2.7244937155       -5.0332591128       -5.6779039630
 H         1.7412457667       -4.2681802546       -4.5744341725
 H         3.6604779296       -7.1601933022       -1.4510240750
 H         4.1470856518       -8.2154637935       -2.9406250198
 H         2.6871249964       -8.5611163254       -2.1011682129
 H         1.8664546452       -8.3459111116       -4.4322981560
 H         1.1248383804       -6.8131512263       -4.7784175275
 H         2.8056419815       -7.2805191982       -5.3798810437
 H         3.8084148353       -2.7870894076       -5.7286381658
 H         4.7303246371       -3.6032570114       -4.5142133126
 H         5.5831808797       -1.4167713406       -2.1399830127
 H         5.9549847715        0.3551418109       -2.3773597836
 H         4.7527721980        0.5273795516       -5.2711636888
 H         4.2309473277       -0.9372065380       -5.9228812561
 H         5.4178829796       -1.0570300281       -4.7081511774
 H         1.3093368692       -0.6287921655       -3.7620150327
 H         1.9820378990        0.9729241764       -4.1200937809
 H         1.8819032448       -0.2807627713       -5.3690314148
 H         6.0956765980       -0.2724064782        0.1566541945
 H         4.9758675254        0.8684993423       -0.2208353064
 H         2.1613175341        0.1783415671        3.9963717280
 H         2.4563132631        1.6852066699        3.0970495854
 H         2.9053106626       -1.9304557542        3.4586685032
 H         4.0850516305       -2.7161681587        2.4718925550
 H         2.4001086282       -2.5465901207        1.9977369529
 H         5.6562968932       -0.8835932608        2.4880343732
 H         5.1993291372        0.8630548340        2.0896867461
 H         4.6018593641        0.1768593816        3.5896254649
 H         0.1077149196        1.0647203221        4.1026282139
 H        -0.1878520669        0.2688990891        2.6822654432
 H         0.7496039452        4.5542396302       -0.2336609340
 H         1.1504642351        6.0229076081        0.6615445803
 H        -1.9684574884        4.3223889447        2.5998597086
 H        -1.2154516583        4.8088812252        1.0360794236
 H        -0.9370800831        5.6659777815        2.4441182702
 H         1.3219573908        3.5908986821        4.3865677115
 H         0.3147700369        4.9934790300        4.2181078431
 H        -0.3836440936        3.4971536678        4.5414146559
 H         3.4862665029        5.8958403510        0.6785227331
 H         3.3491206567        4.5295514651       -0.5523724259
 H         4.5659573764        8.7942994354       -0.2857924816
 H         6.1447488155        7.9086744574        0.1549214253
 H         5.9293539774        8.7693214736       -1.3439322013
 H         4.9646178043        5.8387861253       -3.7732761143
 H         3.3239077795        5.4750897976       -3.7491980046
 H         4.3276782090        4.8078742580       -2.4204796407
 H         2.9262994446        8.0338546347       -3.6987456473
 H         3.6702945591        9.0568691240       -2.4659205541
 H         4.5409965065        8.2135920051       -3.5627535537
 Na        1.3037893764       -1.2334816987       -0.9653353586
