155

 C        -9.8681059024        2.8471139710        3.2595571911
 C       -10.4667041351        1.4460203740        2.9225867751
 C       -10.3569278086        0.1375219546        3.9917805620
 C        -8.8507316518       -0.0542168395        4.1678537277
 C        -7.9835694232       -0.4623799839        2.9322079820
 C       -11.0991907932        0.6096255556        5.2897295646
 C       -10.9170877472       -1.0821379118        3.3755156298
 O       -10.9304728539        1.2042942177        1.8472357151
 O        -8.2181128780        0.5734541793        4.9969077492
 C        -6.5437922434       -0.8122425683        3.0792869758
 C        -5.8024241669        0.0839941832        2.0790290323
 C        -4.4914935251        0.8737268629        2.3878402494
 C        -3.2829985926       -0.1846486774        2.1160806291
 C        -3.0694353369       -0.4587213454        0.6367552196
 O        -6.0893912434       -0.0134760081        0.9063043576
 O        -2.7916199348       -0.7664440232        3.0628047742
 C        -4.4998640130        2.2315816817        1.4771782656
 C        -4.4859709583        1.2618337818        3.8591406327
 C        -2.4419032474       -1.8170590920        0.2994655092
 C        -1.7290561280       -1.8357802417       -1.0086503574
 C        -1.5674576902       -3.1716250407       -1.7657769513
 C        -0.4280045620       -3.8890645879       -0.9596628706
 C        -0.4825315443       -5.3882284492       -0.7038225950
 C        -2.9203200220       -3.9594589469       -1.7417571619
 C        -1.1536852649       -2.8636488175       -3.2492344862
 O        -1.2818058158       -0.8086427533       -1.4784504836
 O         0.6063844562       -3.3553273795       -0.5810443561
 C         0.8059593721       -6.0783169161       -1.1817269974
 C         1.0608003337       -6.1369662573       -2.6699216599
 C         2.4019630158       -6.7752417738       -3.2391599076
 C         3.2261715716       -5.5819128202       -3.7434235494
 C         2.7246383176       -4.7688337101       -4.8846104239
 O         0.1524059706       -5.8445404905       -3.4358625751
 O         4.1952005016       -5.2339637836       -3.1127358615
 C         3.1154211135       -7.5373159424       -2.1770907320
 C         2.0672123380       -7.6639479917       -4.4556161448
 C         3.5811638445       -3.4946779385       -4.9323673538
 C         3.0190633327       -2.4077577519       -4.1003986665
 C         3.2741142088       -0.8908466206       -4.4186375984
 C         3.5692205731       -0.3404085935       -2.9321238314
 C         4.8995215774       -0.3136854715       -2.2110975323
 C         4.2889787636       -0.5122849035       -5.3877478450
 C         1.8746142334       -0.2780754536       -4.7932078438
 O         2.2259310065       -2.6339753284       -3.1807303678
 O         2.6397024247        0.2629821252       -2.3621062988
 C         4.7213709714       -0.0517535330       -0.7597038821
 C         3.9167936864       -1.1930612336       -0.0950510060
 C         3.5149918599       -0.9789875504        1.5189498465
 C         2.2888710068       -0.0381893309        1.5056906539
 C         2.1744452900        1.0212492939        2.6261277451
 O         3.6288002189       -2.1819998870       -0.6707065041
 O         1.3505152908       -0.2973131040        0.7885879091
 C         3.0583569301       -2.2298553686        2.2587793268
 C         4.8323638596       -0.4981325443        2.1317600890
 C         0.6232451948        1.2771916354        2.9614897462
 C        -0.0258794814        2.4636592920        2.2639522985
 C         0.4283195766        3.9118615358        2.6052479424
 C         1.6246039492        4.1717148454        1.6464604195
 C         1.4338645083        5.1042697967        0.4499585085
 C        -0.7384220534        4.9426304068        2.3094010001
 C         1.0000789816        4.0215213253        4.0159667871
 O        -0.8838064854        2.2503157263        1.4068384073
 O         2.7082214430        3.7673543293        1.9593774258
 C         2.7868333918        5.7983834260        0.0324376607
 C         2.6343740752        6.8079455022       -1.1657995346
 C         3.9504302120        6.9218162705       -1.9931595601
 C         5.2221264425        6.8281200593       -1.1362521127
 C         5.7406384186        8.0628141772       -0.3222138441
 O         1.5955772465        7.3804779003       -1.3718699673
 O         5.7533425811        5.7385973809       -1.0918866511
 C         3.8260973870        5.8084701030       -3.0420948001
 C         3.7296828301        8.2935251628       -2.8225580701
 H        -9.6018064883        3.3971701053        2.3307721984
 H       -10.5814997322        3.2740786657        3.9767593284
 H        -8.9161769183        2.7083876983        3.8207414923
 H        -8.4408036281       -1.3561176223        2.3458485900
 H        -8.0952689630        0.3831407315        2.2776143620
 H       -10.5007027396        1.3740109549        5.9651812706
 H       -11.3364819533       -0.1771851309        6.0604120182
 H       -12.1395659547        0.9649042757        5.1000090436
 H       -11.9349900405       -1.0257742298        3.2296341526
 H       -10.4295902909       -1.1665017782        2.3985747983
 H       -10.7515806899       -1.8308639482        4.0739471280
 H        -6.2147849759       -0.7562564935        4.1105543403
 H        -6.3551247640       -1.9038828788        2.7034062289
 H        -4.0381864971       -0.2225341884        0.0658754639
 H        -2.2494346463        0.2360871791        0.4284849465
 H        -5.0165465460        2.0311239439        0.5248369937
 H        -3.5077143501        2.4895790282        1.1956430683
 H        -5.1094273590        2.9635614226        2.0089437266
 H        -4.5936230647        0.3994191112        4.5413354141
 H        -3.5578367999        1.7003407775        4.2070765465
 H        -5.1621899105        2.0636761601        4.1420408815
 H        -3.2957648958       -2.4799821381        0.2975268122
 H        -1.8724527169       -2.0848241207        1.2103079358
 H        -0.6199727788       -5.7101283831        0.3539652373
 H        -1.3506712153       -5.9167356790       -1.1811263831
 H        -3.0938729721       -4.5507322706       -0.8805850779
 H        -2.9733090664       -4.7537764532       -2.4525696940
 H        -3.8127136090       -3.2427643929       -1.9975060691
 H        -2.0031456896       -2.4216266674       -3.7947129366
 H        -0.4450118153       -2.1076358208       -3.4589160891
 H        -0.7086334761       -3.7503573442       -3.6748378225
 H         1.6162871219       -5.5333374958       -0.7803051632
 H         0.8057151249       -7.0582581050       -0.8330322368
 H         2.7689501281       -5.2574505877       -5.8799896642
 H         1.6872120034       -4.5082890484       -4.6968846690
 H         3.4935989421       -6.7643754387       -1.4599106038
 H         4.0409326928       -7.8993164625       -2.5292885468
 H         2.4345244751       -8.2696811262       -1.7047997759
 H         1.6775939513       -8.6184342757       -4.1413197817
 H         1.3804591761       -7.1548881761       -5.1284627068
 H         2.9645011596       -7.8075459470       -4.9166932110
 H         3.6752802828       -3.1834233536       -5.9766766608
 H         4.6022665230       -3.7376950294       -4.5446657177
 H         5.3253400408       -1.3427926521       -2.3024045322
 H         5.6206204484        0.2912200195       -2.6581986126
 H         4.4478347818        0.5221505361       -5.1573561270
 H         3.9948671071       -0.6601346254       -6.3689590480
 H         5.2138486122       -0.9469980518       -5.1937548844
 H         1.1492585734       -0.7222523242       -4.1532512377
 H         1.8051974567        0.8140266260       -4.7623492029
 H         1.6806239674       -0.5394476158       -5.8609221722
 H         5.7474417816        0.0402045244       -0.3866778171
 H         4.2683773905        0.9014491101       -0.6235178764
 H         2.8146350649        0.4108055533        3.4244507976
 H         2.6297961822        1.8902605184        2.2707295769
 H         3.0437344336       -1.9943692918        3.2993831237
 H         3.7057021272       -3.0566960503        2.1385384002
 H         2.1122887140       -2.4568905027        1.9159327355
 H         5.6114640272       -1.2337338896        1.9179342795
 H         5.1972352768        0.3862381809        1.6574832638
 H         4.7988842004       -0.3857522432        3.2520358158
 H         0.4827740683        1.4782664236        4.0651925602
 H         0.0702344827        0.3822423764        2.6396212520
 H         1.1656151710        4.5252499119       -0.4414165428
 H         0.6120907509        5.8996831856        0.6298569715
 H        -1.5105770516        4.7540670483        3.0604434053
 H        -1.2418761700        4.9091762001        1.3379497356
 H        -0.4419897701        5.9775682278        2.4504179028
 H         2.0222894674        4.1577404892        3.9404679021
 H         0.5862890193        4.8596183639        4.5774280144
 H         0.8248081924        3.1757986040        4.6157579054
 H         3.1761814027        6.2806838084        0.9295297188
 H         3.5112698380        5.0172162670       -0.1234015767
 H         4.9072857226        8.7222963136        0.0007108312
 H         6.1710794892        7.6966099052        0.5795291653
 H         6.4987402326        8.6704614125       -0.8536933666
 H         4.6751527280        5.8617358365       -3.7445985042
 H         2.8175988175        5.9362961623       -3.3945795086
 H         3.8528134731        4.8106099174       -2.5602856755
 H         3.0415880754        8.3015557972       -3.6679076769
 H         3.2758205167        8.9685090819       -2.1513880422
 H         4.6234113340        8.8931203480       -3.1868482343
 Na        1.1903158884       -1.2583914234       -1.2790649807
