155

 C         1.5179740846       -0.0319120241       11.4506144453
 C         1.9888450516        1.0665839100       10.3857568171
 C         3.5389505753        1.3056595045       10.0062665652
 C         3.9571597868        0.0625675533        9.1208907783
 C         4.4854059153        0.2603511108        7.6108554029
 C         3.6445090087        2.6170190091        9.2432425595
 C         4.5476525018        1.4498901473       11.2185062169
 O         1.1840175655        1.5946749766        9.6632478599
 O         3.9672346971       -1.0333602396        9.6494867160
 C         3.4182434712        0.0884586182        6.5439370293
 C         3.9588803074        0.4832883193        5.1461045612
 C         3.1672288855       -0.2352641342        3.7623108954
 C         1.7019063071        0.1660959868        3.8155169332
 C         0.7943184108       -0.3210668327        2.5991869544
 O         4.8922626694        1.1649215486        4.8605633666
 O         1.1697969810        0.7242752845        4.7788614069
 C         3.7676851696        0.2866191976        2.5426943172
 C         3.3988635623       -1.7602547856        3.7669710587
 C         0.2157066665       -1.7490108968        2.8500196608
 C        -0.6000076577       -2.3005346156        1.6425980796
 C        -1.7306770794       -3.3204000514        1.6952191551
 C        -3.1128403420       -2.4295248542        1.8952318831
 C        -4.0695205724       -2.6498351872        3.1372625116
 C        -1.9180157674       -4.0593867752        0.3607111537
 C        -1.5805922736       -4.4930328602        2.6516534971
 O        -0.3125711729       -1.7352343583        0.5716162482
 O        -3.4830139634       -1.6459054658        1.0784870726
 C        -4.4753434188       -1.2420387210        3.3992667398
 C        -3.5023513473       -0.4572966756        4.3057501947
 C        -3.8261817445        1.0438240039        4.5029834601
 C        -3.6908258232        1.7533299485        3.0728717728
 C        -2.6735295816        2.9130522581        2.8686973188
 O        -2.5613895418       -0.9892053399        4.8964931332
 O        -4.4403042286        1.3578636782        2.2049025638
 C        -5.2529495661        1.1832549781        4.9206328843
 C        -2.8174769004        1.5401075921        5.5553356323
 C        -2.6249669399        3.5012264144        1.4039418928
 C        -2.0053013862        2.5339529297        0.4108465366
 C        -1.2681451372        2.9814754873       -0.9465914697
 C        -1.2922799284        1.7184172010       -2.0825762285
 C        -1.8496839404        1.9541620170       -3.3977664787
 C        -1.9380628693        4.2778062549       -1.5302139021
 C         0.2230952201        3.2633282936       -0.4323766634
 O        -1.9615340552        1.3671311090        0.7591720054
 O        -0.7447241495        0.6751940953       -1.8265561036
 C        -2.1044948808        0.6658119725       -4.1746997570
 C        -3.1243592326       -0.3462077742       -3.6312142664
 C        -4.0609769606       -1.0434533060       -4.6214575352
 C        -3.1065999295       -1.9213337035       -5.6246532591
 C        -3.7753118966       -2.7194563483       -6.7555076065
 O        -3.1084155923       -0.6734035757       -2.4169190302
 O        -1.8826147898       -1.8843274905       -5.4774453731
 C        -4.9057833281       -2.1626973970       -3.7604314435
 C        -4.9543053471       -0.1296946630       -5.4692398284
 C        -2.7736936122       -2.6428043154       -7.9215946373
 C        -1.4314976001       -3.2008759311       -7.6900484736
 C        -0.2274565156       -2.6391316082       -8.6567285368
 C         0.0693983532       -1.1295323448       -8.2849240509
 C         1.6238225062       -0.7700056965       -8.0306280207
 C         1.0535827578       -3.5500119566       -8.4299294506
 C        -0.7208037379       -2.6774307205      -10.1754666508
 O        -1.2066674977       -4.2418604873       -7.1010919537
 O        -0.7525957673       -0.2887853405       -7.9439992695
 C         1.8163416538        0.8027370333       -8.0758384892
 C         3.2293024106        1.1050252979       -7.4862722944
 C         3.3278199354        2.2152175064       -6.2690368845
 C         2.3168454157        3.3181841532       -6.6637855429
 C         2.2097381242        3.8836102244       -8.0599857400
 O         4.2001582093        0.5734415063       -7.9833474652
 O         1.5601707041        3.5734241170       -5.7175239779
 C         2.9412205028        1.4631005433       -4.9830042877
 C         4.8854738697        2.8054634950       -6.2371725074
 H         2.1979651196       -0.0075862978       12.3055666232
 H         0.5397906859        0.2879693126       11.8535238791
 H         1.5392989540       -1.0209352807       11.1210100085
 H         4.8840555480        1.2858517820        7.4784854504
 H         5.2825188743       -0.4769707033        7.3854398089
 H         3.3550478296        3.4900718408        9.7708625601
 H         3.1394310851        2.6745559079        8.2675347694
 H         4.6639500766        2.7942154311        8.9529222677
 H         4.5143681455        0.3020151284       11.5581002899
 H         5.4500755337        1.9366570391       10.9958401070
 H         4.1141778135        2.0449375321       11.9865229267
 H         3.1565218341       -0.9727066182        6.2971604326
 H         2.6098128862        0.6331071834        6.7176907244
 H        -0.0120020876        0.4212198888        2.3634010434
 H         1.4453135639       -0.2745616856        1.7446096825
 H         3.2260380024        1.1218658215        1.9993195893
 H         4.0149536629       -0.3389715859        1.6394025612
 H         4.7356351246        0.7147637864        2.7870866320
 H         2.7779397886       -2.3134970789        4.4929629353
 H         3.3122449436       -2.2275250401        2.7908267102
 H         4.4521749799       -1.9457867133        3.8982611424
 H        -0.3585644856       -1.8120175823        3.8152298478
 H         1.0162220264       -2.5369432455        2.9463208791
 H        -4.7415789680       -3.4630420164        2.9305268630
 H        -3.4046400680       -3.0116432933        3.9985165258
 H        -2.2357046124       -3.3868244583       -0.4331225390
 H        -2.7571908244       -4.7978071507        0.5592976159
 H        -0.9680933909       -4.4308023911       -0.0142436440
 H        -0.8582475714       -5.2494490581        2.2628739717
 H        -1.3776458431       -4.3310229005        3.7002005775
 H        -2.5147949015       -5.0593848432        2.6551263758
 H        -4.6517655790       -0.7505851027        2.4430734467
 H        -5.3522898796       -1.0851547034        4.0132644239
 H        -3.1235534459        3.6165540583        3.6572908809
 H        -1.8113474587        2.4590608896        3.2252091261
 H        -5.9269897970        1.4932340156        4.1858700279
 H        -5.2403807967        1.7340849134        5.8479379555
 H        -5.6639184988        0.1768363404        5.2430630380
 H        -2.9031163195        2.6174893074        5.7650712716
 H        -3.0044142224        0.9475666241        6.4428488996
 H        -1.8831813166        1.3169407496        5.1091994781
 H        -1.9528937246        4.4216656771        1.3349481500
 H        -3.6484583344        3.7766404434        1.1664423042
 H        -2.7665254414        2.5243716141       -3.3129410923
 H        -1.0584207252        2.5107617917       -4.0355493498
 H        -2.0285552079        5.1104287061       -0.8459586277
 H        -2.9269072209        3.9839707090       -1.7333400061
 H        -1.5404820450        4.5761931802       -2.4373603653
 H         0.8705460861        2.3868039971       -0.4974868541
 H         0.8011010147        4.0964031831       -0.9030064002
 H         0.1494271875        3.5767425515        0.5801477754
 H        -2.3730873500        0.9783735348       -5.2073398094
 H        -1.0908821272        0.2773801020       -4.3423083514
 H        -3.9424021724       -3.7730138269       -6.5106161325
 H        -4.7140689941       -2.3603783475       -7.1130717510
 H        -4.7876216624       -3.1739213092       -4.0913114547
 H        -6.0542493230       -1.9375470292       -3.8313051213
 H        -4.5786507641       -2.0364976442       -2.7013381307
 H        -5.3147644767        0.6609827551       -4.8381123250
 H        -4.3663189359        0.2772703130       -6.2647930553
 H        -5.7058381255       -0.8467252077       -5.9677505374
 H        -2.7908309164       -1.6624837167       -8.3204920369
 H        -3.2015636392       -3.2776053654       -8.7423526290
 H         1.9073036223       -1.0603483798       -6.9934490762
 H         2.3212589071       -1.2730794718       -8.7734250600
 H         1.8404454698       -3.2169474883       -9.0693397859
 H         0.7203885660       -4.4974694650       -8.8163907587
 H         1.2352091772       -3.5156764423       -7.3978408979
 H        -1.6121399688       -3.2639940995      -10.2587222646
 H        -0.9940219881       -1.6228036493      -10.4515689721
 H         0.0987231601       -2.9857255402      -10.7677462187
 H         1.9133650677        1.1861116744       -9.1078399326
 H         1.0232541677        1.2943574859       -7.5548468617
 H         2.9017616538        4.7603221290       -8.1153494996
 H         2.6122566048        3.2917571278       -8.8400722549
 H         1.2570851557        4.3014831050       -8.3542682561
 H         2.3082171941        2.0702037140       -4.3120180245
 H         3.8838768008        1.2737290987       -4.3789687681
 H         2.4196033171        0.4970382316       -5.0960692616
 H         4.8874001633        3.8608891318       -6.1702496702
 H         5.3404934353        2.5553955829       -5.3105417024
 H         5.4755126626        2.5232906979       -7.0929348905
 Na       -2.0047773617       -0.7986011628       -0.4964257172
