155

 C        -9.9802386849        3.1025187024        3.7180466431
 C       -10.5676512824        1.7735990889        3.2166808670
 C       -10.2635384603        0.5729062938        4.2669940993
 C        -8.6023705842        0.3566506861        4.2072284623
 C        -8.0439846131       -0.5919447009        3.0552399439
 C       -10.4119615821        0.9978234719        5.7203738910
 C       -11.0790815498       -0.6997520295        3.8263811033
 O       -11.2307800559        1.6670535866        2.2027519152
 O        -7.8981641565        0.6468025240        5.0887829095
 C        -6.6156800556       -0.9253179323        3.4498134886
 C        -5.5733875885       -0.2828196164        2.3422128169
 C        -4.2725080696        0.6898583573        2.8511288010
 C        -3.0304999170        0.0326454925        2.4040125145
 C        -2.7325968151       -0.1294175235        0.8216526199
 O        -5.7383368256       -0.3995940217        1.1515453191
 O        -2.2394997850       -0.4300077886        3.1993916330
 C        -4.5482943706        2.1248261186        2.0577064039
 C        -4.2137226833        0.9019191760        4.3678745694
 C        -1.9837472413       -1.4664033516        0.5607087453
 C        -1.5900146024       -1.8286468509       -0.8271636761
 C        -1.8999018782       -3.2660111110       -1.3877045062
 C        -0.6490384812       -4.1495190745       -1.1728827864
 C        -0.8621605499       -5.6051066699       -1.1729553062
 C        -3.1948659400       -4.0091815041       -0.8836136597
 C        -2.0791155693       -3.1555145514       -2.9696278637
 O        -0.9588016680       -1.0249547810       -1.4786754425
 O         0.4480495985       -3.6769795151       -1.0795864594
 C         0.5313659875       -6.3478413514       -1.3635840029
 C         0.9961007568       -6.4905388645       -2.9375125064
 C         2.4512278444       -6.9432708771       -3.3355266448
 C         3.1681141903       -5.6925559856       -3.7493944981
 C         2.5877834705       -4.9004207737       -4.9788175930
 O         0.1497223805       -6.1777585740       -3.7644016137
 O         4.0064986216       -5.2195685900       -2.9953604323
 C         3.2010296583       -7.5090054620       -2.1171538035
 C         2.4515598613       -8.1270724500       -4.3520536061
 C         3.1443395691       -3.5605538161       -5.3640734455
 C         2.6288814821       -2.4707767855       -4.4587585690
 C         3.1987153358       -1.0242889964       -4.6327032592
 C         3.2652308524       -0.1572677430       -3.2982450422
 C         4.5854606249       -0.0928643855       -2.5394938145
 C         4.5645847036       -1.0070001755       -5.4105060140
 C         2.0983184811       -0.4445378717       -5.6015548061
 O         1.9373532212       -2.7292975236       -3.5251708897
 O         2.2772088049        0.4488201864       -2.9476935371
 C         4.2773815570        0.1605077807       -1.0601423269
 C         3.6311492640       -0.9520757893       -0.2836675315
 C         3.4570496649       -0.7089097028        1.2033508172
 C         2.0697210700       -0.0969034930        1.4538639776
 C         1.8817168784        0.6406794177        2.8498531022
 O         3.4099447216       -2.0572310800       -0.7580988271
 O         1.1500798093       -0.0951778921        0.6335246085
 C         3.2850035114       -2.1174783580        1.8304672755
 C         4.6199672609        0.0647608471        1.7908480831
 C         0.4475654130        1.0929700867        3.0574212311
 C         0.1443583132        2.4059463910        2.2006983143
 C         0.7394151743        3.7653793959        2.7301004964
 C         1.9443227080        4.2715631114        1.6976355652
 C         1.8137939727        5.6121471923        0.9193716619
 C        -0.5226718281        4.7191701361        2.7322048732
 C         1.2433315435        3.7973743060        4.2054429104
 O        -0.6949449730        2.4273119128        1.3390611732
 O         2.8127036561        3.4883966607        1.3835346972
 C         2.4977500480        5.5124650989       -0.4657832692
 C         2.6438312378        6.8534619499       -1.1357291510
 C         3.8734869960        7.1392328130       -2.0509955145
 C         5.2573318785        6.9026608672       -1.1758406319
 C         5.8799894043        8.1226070059       -0.5063507070
 O         1.7555131698        7.6666504924       -1.0785980294
 O         5.7694987336        5.8419182493       -1.2672635469
 C         3.8200933434        6.0011615452       -3.1627596513
 C         3.9227333835        8.5382093141       -2.5893997625
 H        -9.9107458845        3.8648944759        2.8704556853
 H       -10.6724926021        3.5259188280        4.4899489514
 H        -9.0987711228        2.8380797493        4.2193142632
 H        -8.6365984147       -1.5009605192        3.0101016783
 H        -8.1355591489       -0.1017414181        1.9998989966
 H        -9.4954748755        1.4676203973        6.1561782000
 H       -10.5179485449        0.1887504962        6.3931948864
 H       -11.1482744428        1.8331236854        5.9260491078
 H       -12.1392340212       -0.4353862612        3.9645880570
 H       -10.8404121076       -0.9468547567        2.7945823282
 H       -10.7059480823       -1.4864082453        4.3995942225
 H        -6.2974221535       -0.5204492607        4.4729555891
 H        -6.3298490772       -1.9712744029        3.5028708993
 H        -3.6616491310       -0.1980697036        0.2449064839
 H        -2.1270186858        0.7130110373        0.3317674927
 H        -4.7255166917        1.9666095637        1.0046814286
 H        -3.8264796597        2.9206224130        2.2745479374
 H        -5.5314124694        2.4890660952        2.5247037630
 H        -4.3287387974       -0.0308357151        4.8776420891
 H        -3.2546984978        1.3257823545        4.7419656007
 H        -5.1012650131        1.3302019133        4.8599888238
 H        -2.5829661657       -2.2245619413        1.0605180594
 H        -1.0076749268       -1.3646878741        0.9854010910
 H        -1.2242093518       -6.0585336538       -0.2768161894
 H        -1.5471657682       -6.0751691175       -1.8965749104
 H        -3.1697350478       -4.4746170584        0.1607298790
 H        -3.4210567913       -4.6939180590       -1.6577280620
 H        -4.0432893938       -3.3096757151       -0.8363609342
 H        -2.8633595717       -2.4257343995       -3.1796186415
 H        -1.1419061835       -2.6903414764       -3.3673944440
 H        -2.4147974954       -4.0453789100       -3.6567772651
 H         1.2792730119       -5.7221541682       -0.7838401342
 H         0.4261306229       -7.4263377350       -1.0732623218
 H         2.7145715078       -5.6191213558       -5.8052979827
 H         1.5114470115       -4.6791613069       -4.7830947969
 H         3.4349798697       -6.7715983271       -1.3933558044
 H         4.0903265852       -7.9884775346       -2.5278793323
 H         2.6041615950       -8.2706319245       -1.6653396647
 H         2.0655918298       -9.0784977793       -3.8746927244
 H         1.8925421871       -7.8922278312       -5.2261952919
 H         3.4857818021       -8.3246728641       -4.6872255929
 H         2.7047542407       -3.3543008483       -6.3497255264
 H         4.2322859156       -3.5206390912       -5.4060986501
 H         5.3464114861       -0.8064295118       -2.7683813536
 H         5.0284569039        0.8904262777       -2.9228784164
 H         4.8943423692       -0.0512913372       -5.1948973777
 H         4.6172880528       -1.1238747676       -6.4561696381
 H         5.2143166679       -1.7001728936       -4.9424477947
 H         1.2938672286       -0.1076799430       -4.9039416699
 H         2.5262801996        0.4217965421       -6.0057052055
 H         1.6873292939       -1.1756542112       -6.2549523202
 H         5.2548175023        0.1948963201       -0.6594336884
 H         3.7125253246        1.1334264241       -1.0608055292
 H         2.0857267707       -0.0624106909        3.5356383605
 H         2.6336322846        1.4181035959        2.8050753955
 H         3.1219236698       -2.1117422853        2.8759288187
 H         4.0791272471       -2.7239133728        1.5220550560
 H         2.4524511122       -2.5284762908        1.3241166580
 H         5.5839655071       -0.4466322675        1.5271594555
 H         4.6393109876        1.0813531676        1.4517688901
 H         4.6634518519        0.1520790020        2.7976250117
 H         0.3651057186        1.2054949812        4.1727403826
 H        -0.2785865274        0.3553136426        2.6451111780
 H         0.8795992741        6.0614976908        0.8042117247
 H         2.3413727748        6.3580824559        1.5059007295
 H        -1.1531489766        4.3837615304        3.5575163520
 H        -1.1865238745        4.6093164998        1.9021219728
 H        -0.2714347696        5.7693419617        2.9546876859
 H         2.1341741446        3.1474115328        4.3246797610
 H         1.5929799258        4.7631329009        4.5715560533
 H         0.5321097053        3.3213228711        4.8446015581
 H         3.4655833596        4.9987697786       -0.2658689111
 H         2.0177151600        4.7394807184       -1.0151318749
 H         5.3501550603        8.3364491616        0.3723115223
 H         6.9644108084        8.0191754567       -0.1621111230
 H         5.8964930401        8.9353553551       -1.1883692384
 H         4.7081753927        6.2067311218       -3.8011138009
 H         2.9321651010        6.1982176811       -3.7982109097
 H         3.8531930888        4.9536333306       -2.7321167760
 H         3.1312021903        8.5612604844       -3.3584489855
 H         3.5886665165        9.2897174920       -1.8855410956
 H         4.8676914646        8.7780670170       -3.2542671540
 Na        1.2841911777       -1.5541709426       -1.6699974146
