155

 C        -9.9080376157        3.2512794952        3.8076465262
 C       -10.2819077195        1.8388606212        3.4204788774
 C       -10.0616595764        0.6031158550        4.4108238692
 C        -8.4758953161        0.4720116260        4.3641985683
 C        -7.9992303355       -0.4379547831        3.1749951862
 C       -10.6529143268        1.0003967501        5.8106061467
 C       -10.8752802875       -0.6283073819        3.9175975243
 O       -10.9464527675        1.6118870159        2.4616219137
 O        -7.6446732434        1.1743186334        5.0197291171
 C        -6.5774598554       -1.0087573753        3.3840464503
 C        -5.5705616083       -0.3131955749        2.3821709351
 C        -4.4028962862        0.6201633506        2.9007122650
 C        -3.0650975699       -0.0912729878        2.3332360561
 C        -2.9090882814       -0.2248389616        0.8591812644
 O        -5.6814668768       -0.5515280853        1.1901625299
 O        -2.1800106171       -0.3837380273        3.1553705842
 C        -4.4525684473        2.0576988624        2.3098028149
 C        -4.3418350837        0.7257873527        4.4556711027
 C        -2.0420325214       -1.5375364204        0.6352567568
 C        -1.5954982201       -1.8575957593       -0.7529667993
 C        -1.8745755880       -3.2872192932       -1.3350647007
 C        -0.6116674487       -4.2263849087       -1.2357292139
 C        -0.8573983545       -5.6730017055       -1.4328003881
 C        -3.0465559436       -3.8999612580       -0.4347037802
 C        -2.3032497978       -3.1043262853       -2.7622437365
 O        -1.0888717159       -0.9755210887       -1.3937795261
 O         0.5002656135       -3.7271567138       -1.1040253519
 C         0.4120358755       -6.6170439956       -1.5263899278
 C         0.9199958880       -6.5862234932       -2.9576860840
 C         2.4265033961       -6.9537084294       -3.1926060189
 C         2.9147532328       -5.5932314365       -3.7878244988
 C         2.4541243739       -5.0194109964       -5.0994297560
 O         0.2573879953       -6.2976598468       -3.9187729356
 O         3.8337138691       -5.1147471668       -3.1782897819
 C         3.1505081743       -7.5000829265       -1.9470403771
 C         2.4229242565       -7.9692817183       -4.3404987702
 C         3.1752398264       -3.6295966136       -5.3118572688
 C         2.5273958539       -2.4705368670       -4.5415702780
 C         3.2485230244       -1.0937626222       -4.8159769826
 C         3.1705276510       -0.3170713777       -3.4723277548
 C         4.5053848721        0.0248733702       -2.6767312644
 C         4.6580452400       -1.1981958509       -5.4826412690
 C         2.2524126849       -0.4204857235       -5.7851387028
 O         1.5605928186       -2.6417752636       -3.8314449264
 O         2.0914641945        0.0201704755       -2.9958507462
 C         4.2457023036        0.3548539186       -1.1644703811
 C         3.7067062742       -0.7950921387       -0.3852753454
 C         3.4776071903       -0.6877430990        1.1612857139
 C         1.9986975958       -0.0656311984        1.4360910353
 C         1.8322880737        0.7191137050        2.7182889378
 O         3.4989062564       -1.8405733754       -0.9900878737
 O         1.1331038511       -0.2748541867        0.6256250860
 C         3.5009427639       -2.0266380905        1.9255301405
 C         4.5790322586        0.2466188753        1.8361632720
 C         0.3788627996        1.0776567023        2.9132284317
 C        -0.0033312033        2.4626621992        2.2266955000
 C         0.7762680546        3.7663293388        2.6493155007
 C         1.8993111733        4.0883542878        1.5812882696
 C         1.9853970888        5.4604377110        1.0487114759
 C        -0.3298589064        4.9473019847        2.7386433119
 C         1.5758007036        3.6497058040        3.8938074763
 O        -0.6801934566        2.4541402050        1.2133987069
 O         2.8251554746        3.2951675059        1.4476135820
 C         2.4269471736        5.4594473600       -0.4719891408
 C         2.6924442573        6.8412808053       -1.0352279001
 C         3.8370355469        7.0907593198       -2.0691014147
 C         5.2219393481        6.8848848199       -1.2849741872
 C         5.8564007855        8.0744398747       -0.4788932356
 O         1.9340430224        7.7537912857       -0.7203063933
 O         5.7835678292        5.8015321373       -1.2356710337
 C         3.9145746256        6.0984120728       -3.2609497692
 C         3.6382787624        8.5904900958       -2.5856024658
 H       -10.1975002256        3.7857550956        2.9788625396
 H       -10.6704851586        3.5130331072        4.4908972678
 H        -8.9209777475        3.4564770759        4.2601354336
 H        -8.6972042062       -1.2392920584        2.9702279428
 H        -8.1382344166        0.2316168488        2.3946480032
 H       -10.1707139625        1.6575993089        6.4229813389
 H       -10.5882799139        0.0475321286        6.3162686715
 H       -11.6378248949        1.3860517447        5.7461377179
 H       -11.9259731005       -0.3585660021        4.0484406566
 H       -10.6470033941       -0.8690337622        2.8946975048
 H       -10.4716139965       -1.5146982413        4.5155940798
 H        -6.2687149500       -0.7313128484        4.3425823263
 H        -6.3982955627       -2.0728527383        3.3565494654
 H        -3.7976215309       -0.0670133440        0.2513435162
 H        -2.2816894055        0.5782735717        0.5934754267
 H        -4.7649891302        1.9048346156        1.2582147496
 H        -3.4477654554        2.5358164099        2.3460382702
 H        -5.0253777508        2.7695710305        2.8339093873
 H        -4.1047873460       -0.2073030913        5.0024431897
 H        -3.7031616875        1.4725510413        4.8380161280
 H        -5.2989128606        0.7941309208        4.9059702282
 H        -2.4697616830       -2.3476052251        1.2229009798
 H        -1.1020902216       -1.2158823834        1.1417185970
 H        -1.5125609580       -6.2247316461       -0.7373098810
 H        -1.3243983773       -5.8672537559       -2.3818905206
 H        -2.6464556467       -3.9263857465        0.5254455638
 H        -3.4861471573       -4.8441714072       -0.8545270199
 H        -3.8567181620       -3.2316870590       -0.3688707232
 H        -3.3729096170       -2.8565103545       -2.9198823871
 H        -1.6012840337       -2.4581351633       -3.3070302549
 H        -2.3432882623       -4.0162164144       -3.2427525575
 H         1.1435226251       -6.1786913540       -0.8653451039
 H         0.2295741077       -7.6966256389       -1.3702828111
 H         2.7587851953       -5.7498389017       -5.8576659128
 H         1.3817805822       -4.9419565528       -4.9805297051
 H         3.1432159032       -6.6527090602       -1.2912273159
 H         4.1305973688       -7.9101190493       -2.1992241616
 H         2.6495304053       -8.2844517161       -1.4191304270
 H         2.1196260382       -8.9436464805       -3.9638201835
 H         1.6963275385       -7.6560148900       -5.1452109464
 H         3.4498375523       -8.0797414933       -4.8084441780
 H         3.2378055955       -3.3839886449       -6.3677820166
 H         4.1649578510       -3.7306251992       -4.8526724548
 H         5.1792636540       -0.8810267172       -2.7808998379
 H         5.0771174330        0.8376227340       -3.0926463981
 H         5.0371966406       -0.2073734201       -5.8873788997
 H         4.5438892429       -1.9281286452       -6.3318068565
 H         5.3894527602       -1.7197042707       -4.8139249419
 H         1.2659089249       -0.6662609960       -5.4876617534
 H         2.4337214934        0.6714249146       -5.6910505867
 H         2.4303418067       -0.8636552985       -6.7609257673
 H         5.2256144729        0.7618019133       -0.7733949809
 H         3.4496364059        1.0651295537       -1.2368282753
 H         2.3595977522        0.0773504784        3.5558091087
 H         2.4669758034        1.6213132788        2.4453665227
 H         3.2335766914       -1.7493974880        2.9683022970
 H         4.4488946542       -2.6195559100        1.7920425886
 H         2.6123220805       -2.6470383602        1.5902712828
 H         5.6034246257        0.1269062012        1.5708794246
 H         4.2924032145        1.3240025793        1.7729106650
 H         4.5421518046        0.2095742983        2.9734712244
 H         0.0699342335        1.2897938821        3.9436907544
 H        -0.3238917132        0.3283077226        2.5589691350
 H         1.0608611750        6.1479798019        1.1990421821
 H         2.7429483790        6.1341483154        1.4675004571
 H        -1.1620211939        4.7247463603        3.4256404137
 H        -0.8032615898        5.1011067707        1.7257763228
 H         0.0976534306        5.8646332644        3.1261691502
 H         2.6887902308        3.6023320440        3.7185436399
 H         1.4633549077        4.5158885880        4.5750696851
 H         1.3998783503        2.7150935529        4.5165730607
 H         3.2616745012        4.7792806883       -0.5183062683
 H         1.6649392851        4.9188748417       -1.1205175260
 H         5.3159729099        8.2576045837        0.4891172654
 H         6.8558096250        7.8721318026       -0.2192652585
 H         5.8816003353        8.9769662403       -1.1174100631
 H         4.6825100537        6.3211015757       -4.0126418530
 H         2.9238669187        6.1280005065       -3.7545866641
 H         4.0427911972        5.1295958858       -2.7919651877
 H         2.8031542628        8.6631865225       -3.3442157215
 H         3.4308375661        9.3149239520       -1.7534806395
 H         4.4878469349        8.8983524277       -3.0573541687
 Na        1.1356432155       -1.4402285450       -1.5638818094
