155

 C       -10.1517352399        3.7103902455        4.4493015036
 C        -9.9160381929        2.2824364981        3.8963971074
 C        -9.5613009101        1.1572913502        4.8836377569
 C        -8.0697387338        0.7318308135        4.5009181018
 C        -7.7719508771       -0.7121631448        4.3996280505
 C        -9.5225626791        1.6180400267        6.3331090476
 C       -10.3783263526       -0.0134491483        4.5518301990
 O        -9.9710102610        1.9828152552        2.7314801506
 O        -7.2366688352        1.6415483325        4.3550752751
 C        -6.2915308449       -1.2075724815        4.2190024711
 C        -5.7123250911       -0.2972050089        3.0526051702
 C        -4.3322611677        0.5111442729        3.1984201092
 C        -3.2713185189       -0.5278503805        2.7356523792
 C        -3.1879085550       -0.8990290498        1.2795781396
 O        -6.2470245599       -0.3634365693        1.9552519153
 O        -2.5159099907       -1.1089704509        3.4907238941
 C        -4.3733960457        1.7276492815        2.3039250530
 C        -4.0917377919        0.9085021669        4.7084879370
 C        -2.1884264233       -1.9614454157        1.1462531384
 C        -1.9029693791       -2.2199401722       -0.3501064392
 C        -2.2962975246       -3.5297594187       -1.0569614887
 C        -0.9942124162       -4.3971265633       -1.3544114145
 C        -1.1947445784       -5.9194729546       -1.1720669097
 C        -3.4242892142       -4.3652099683       -0.2667144693
 C        -2.8311497496       -3.2076905980       -2.5011796620
 O        -1.2733327143       -1.3886465653       -0.9896974629
 O         0.0478924879       -3.9449373155       -1.7412492365
 C         0.1559543968       -6.6955540536       -1.4655704661
 C         0.5361110579       -6.6949976591       -2.9852427221
 C         2.0364496339       -6.9294576081       -3.3155085315
 C         2.6909972922       -5.5774657004       -3.8396153902
 C         2.1103830720       -5.1143410474       -5.2557105874
 O        -0.2113922288       -6.3699305595       -3.8627808873
 O         3.5446578756       -4.9555573900       -3.1985473151
 C         2.9700539050       -7.3210858475       -2.1545553652
 C         2.1353220403       -7.9288317063       -4.4541038078
 C         2.4058868450       -3.6422182381       -5.7437661007
 C         2.3744519685       -2.4868438803       -4.6491309569
 C         3.0759302360       -1.1621715013       -5.2079846344
 C         2.9662387453       -0.1715987752       -4.0486722700
 C         4.1834558423        0.5453965681       -3.5194806053
 C         4.5071177820       -1.5420228868       -5.6237983218
 C         2.3057348624       -0.4257092706       -6.3641791080
 O         1.8285379252       -2.6952856207       -3.6108431281
 O         1.8753399645        0.0542567274       -3.5572983807
 C         4.0836974098        0.6727640826       -1.9624644081
 C         3.8403811033       -0.6174188192       -1.0734844552
 C         3.8670401353       -0.4437210448        0.4859872234
 C         2.3552357366       -0.2129717433        1.0875281198
 C         2.1345497215        0.5143691928        2.4388775947
 O         3.5301435336       -1.6688464138       -1.6004086070
 O         1.3861970972       -0.7110828709        0.5589412338
 C         4.2106781746       -1.8363235983        1.0170608729
 C         4.8020799032        0.6165974599        1.1594469859
 C         0.6977816788        0.8442612025        2.8464513170
 C         0.0307803760        2.2787619924        2.4310057596
 C         0.8633086775        3.6395103531        2.7037453064
 C         1.7054916217        3.9927350218        1.4963223949
 C         1.5940462335        5.4369284021        0.8634949744
 C        -0.2068901624        4.6893483642        3.1513287930
 C         1.8705049687        3.3402475780        3.8966101495
 O        -1.1174967630        2.3164284613        2.0429178034
 O         2.2944621831        3.1139156071        0.9015657379
 C         2.6446616701        5.6413355569       -0.3184288248
 C         3.1058685769        7.1141089759       -0.6970975499
 C         4.0228388006        7.2329806984       -1.9569165730
 C         5.5766915621        7.1950407978       -1.7386536848
 C         6.3619380941        8.4016197701       -1.2314336579
 O         2.8174519326        8.0875080492       -0.0162358244
 O         6.1727210211        6.1597647700       -2.0137451669
 C         3.6349599251        6.2162142494       -2.9937033333
 C         3.6548976824        8.6830073416       -2.5928049221
 H       -10.4406916785        4.3744927780        3.7001548877
 H       -10.7861171510        3.8227907450        5.3109843357
 H        -9.1352466218        4.0276746636        4.7822681065
 H        -8.1845515304       -1.2869346223        5.2197005013
 H        -8.2628255569       -1.0457551165        3.5123515606
 H        -8.7767781941        2.3318842245        6.4102609693
 H        -9.2874940863        0.8065138273        7.0565714270
 H       -10.4436660175        2.0837048510        6.5404007080
 H       -11.3997418501        0.3168299637        4.3602106350
 H       -10.1935057861       -0.5348114713        3.5793568969
 H       -10.4296801555       -0.7080560426        5.4440763300
 H        -5.6813747908       -1.0673662606        5.0709076259
 H        -6.2344824587       -2.2548215138        3.8518739634
 H        -4.1028670347       -1.0074829249        0.7532270997
 H        -2.8697053357       -0.0043301639        0.7554683925
 H        -4.4834806314        1.4303267487        1.2340957682
 H        -3.4496875172        2.2877521542        2.3259198776
 H        -5.3068524403        2.2830214994        2.4634220560
 H        -3.7226262627        0.1947719541        5.4358693035
 H        -3.4463975147        1.7834864427        4.8529631313
 H        -4.9256189932        1.3807707561        5.2067904290
 H        -2.6424201196       -2.8353179308        1.6493523501
 H        -1.3162813180       -1.7945366643        1.8105089702
 H        -1.5676733757       -6.1983180100       -0.1849411784
 H        -1.9143871034       -6.3150987143       -1.9487085231
 H        -3.0563110729       -4.7351033826        0.6662196402
 H        -3.6930138819       -5.2239079299       -0.9015539614
 H        -4.2851840351       -3.6740645803       -0.1394481649
 H        -3.7897553075       -2.6540875041       -2.3774785016
 H        -2.2493127963       -2.5135934394       -3.1026845817
 H        -2.7866377583       -4.1276650579       -2.9679519991
 H         0.9580470789       -6.3664269467       -0.8482243895
 H         0.1783508854       -7.6943933453       -1.2062658969
 H         2.4101060646       -5.9256169834       -5.9328318487
 H         1.0582205968       -5.3433772021       -5.1444689047
 H         3.1314226629       -6.5710986488       -1.3874043174
 H         3.9128850127       -7.3338861316       -2.6023471850
 H         2.8055092150       -8.2660421368       -1.6781492765
 H         1.7483677393       -8.8809163219       -4.0628094344
 H         1.6667556716       -7.7883817935       -5.4707700071
 H         3.2058674474       -8.1722575651       -4.7331255954
 H         1.8131049230       -3.2631045252       -6.5752104717
 H         3.4246733548       -3.6956419802       -6.2186750333
 H         5.0706895904       -0.0834952151       -3.6426926445
 H         4.3290754508        1.5034428653       -4.0393641138
 H         5.1292790920       -0.6940380638       -5.9943742709
 H         4.5735616616       -2.2158587742       -6.4702411274
 H         5.0815520053       -2.0484816389       -4.8583060912
 H         1.4216905110       -0.0180958495       -5.9992861830
 H         2.9485579813        0.3141264683       -6.8183261078
 H         2.1230642628       -1.2461213644       -7.0848460412
 H         5.0376811139        1.0965803944       -1.7093714018
 H         3.3804206645        1.5009649063       -1.6600974743
 H         2.6172770286       -0.1433913695        3.1785322672
 H         2.7164251372        1.3150104935        2.3888869312
 H         3.7829786129       -1.9482535056        2.0155698058
 H         5.2886056865       -2.0305960385        1.0137825371
 H         3.7766397184       -2.5225538773        0.3091810226
 H         5.8076121283        0.5213401832        0.8244567902
 H         4.5090893441        1.6759733408        0.9273437199
 H         4.8499900537        0.3615510836        2.2943489851
 H         0.4893740336        1.0853072899        3.9248600860
 H        -0.0943543492        0.1306073119        2.5971938370
 H         0.6242139959        5.6377390769        0.3954812147
 H         1.7343269022        6.1922690176        1.6859995132
 H        -0.8585146675        4.2408852783        3.9069082003
 H        -0.8627931230        4.9146397729        2.3088092951
 H         0.3577720133        5.5710392585        3.4760875010
 H         1.6716143342        2.4054451346        4.4881720565
 H         2.8936155958        3.2189259782        3.4727446806
 H         1.7880085617        4.1236265718        4.6939124766
 H         3.4687250051        5.0111344185        0.1127841206
 H         2.2983121433        5.0499672543       -1.1815504528
 H         5.8514467327        8.8652275915       -0.3450154172
 H         7.3561093820        8.1659416247       -1.0592218195
 H         6.3569590638        9.2443997990       -1.9708080878
 H         4.2203874944        6.4140433839       -3.9412872258
 H         2.5241490868        6.2366564035       -3.1083989057
 H         4.0657831869        5.2207788696       -2.7216691057
 H         2.6200576424        9.0685340859       -2.5292588161
 H         4.2661498638        9.3893770934       -2.0327008815
 H         3.9632306229        8.5577035897       -3.5653777716
 Na        1.0290968802       -1.5759036319       -1.7163049949
