155

 C       -10.0627327041        3.8678425176        4.3757222559
 C       -10.0061311262        2.4480217607        3.8836760904
 C        -9.5208773223        1.2851780879        4.9736737246
 C        -8.0026500430        0.6802411345        4.6116434464
 C        -7.6668285214       -0.7863932974        4.7431062655
 C        -9.4834955764        1.6221754904        6.3953270221
 C       -10.6328121299        0.2126605722        4.8583976524
 O       -10.0058461742        2.1667278095        2.6969836282
 O        -7.1274475228        1.4383387960        4.4480192322
 C        -6.1453265718       -1.0627773715        4.5545819465
 C        -5.6787978456       -0.2746235513        3.2117161753
 C        -4.2663188017        0.4962058537        3.3254172178
 C        -3.2463550605       -0.6275158579        2.9228018329
 C        -3.1374942499       -0.9114817873        1.4305186366
 O        -6.2020079311       -0.3414673768        2.1511672004
 O        -2.4846073192       -1.0951158069        3.7166823321
 C        -4.3781179236        1.6873984955        2.2961653344
 C        -4.0560977776        1.1190969562        4.6959603429
 C        -2.1460792042       -2.0656440362        1.0698286542
 C        -1.8388130002       -2.2291359845       -0.4376019562
 C        -2.3812640492       -3.5573053508       -1.2097667754
 C        -1.0227732255       -4.5189184035       -1.3371148489
 C        -1.0613841118       -6.0616671125       -1.0698749304
 C        -3.5336497361       -4.2114476608       -0.4888464057
 C        -2.7222686428       -3.2223876932       -2.6946802833
 O        -1.1514445680       -1.4445452704       -1.0548099442
 O         0.0232699390       -3.9658522291       -1.6293447591
 C         0.1911832717       -6.7992020691       -1.4638022222
 C         0.6264998126       -6.6215530959       -2.9339006559
 C         2.0509671275       -6.9983884522       -3.3310379502
 C         2.7143538981       -5.5218973829       -3.9824944815
 C         1.9157548849       -5.0295897748       -5.2617450910
 O        -0.1943384261       -6.2947128776       -3.7884531002
 O         3.6210546327       -4.9982578693       -3.4478931926
 C         2.9039626499       -7.5377151336       -2.2300771381
 C         2.0190419891       -8.0561226099       -4.4130055843
 C         2.3433420247       -3.7458942840       -5.8113630041
 C         2.2278332196       -2.5686107116       -4.8422215159
 C         2.9861617565       -1.1676441126       -5.1418081420
 C         2.8969227843       -0.2120816213       -3.8740555504
 C         4.1157436588        0.5075950901       -3.3396963330
 C         4.3785263431       -1.3687858904       -5.5979264102
 C         2.1041392070       -0.6074467115       -6.3777739045
 O         1.6249825377       -2.6908229882       -3.7876419892
 O         1.8251376258        0.0578258800       -3.3441325996
 C         4.0589723192        0.8523623502       -1.8406558650
 C         3.7075770538       -0.4460891276       -1.1593512536
 C         3.9156257980       -0.5223513435        0.3948676994
 C         2.3538646068       -0.2192362100        0.8467500319
 C         2.2376890516        0.5164914705        2.2297534766
 O         3.4720571692       -1.4662251136       -1.7906892370
 O         1.4168063015       -0.4821459945        0.1703488140
 C         4.2356205964       -1.9172695920        0.9245247001
 C         4.9513977587        0.4856432217        0.8039526564
 C         0.8216363806        0.7476638835        2.6771775164
 C         0.2034566394        2.2004153654        2.4454034268
 C         0.8688521907        3.6990806985        2.6933143415
 C         1.6726224414        4.0438534166        1.3612333160
 C         1.8219984911        5.4756261243        0.9035887702
 C        -0.2785621663        4.6924666615        3.0120655955
 C         1.8952163701        3.7436199001        3.9106627857
 O        -0.9710418681        2.2301607898        2.1222252598
 O         2.3079978848        3.1158460646        0.8106199637
 C         2.8605206938        5.5497714180       -0.2377164229
 C         3.2310910107        6.9895680401       -0.5886449004
 C         3.9515016541        7.3038085414       -1.9269748393
 C         5.4461820633        7.1914547604       -1.7548772564
 C         6.2524176504        8.4110689202       -1.1954157639
 O         3.0248669580        7.8868204055        0.2137546068
 O         5.9997560033        6.1239950997       -1.9744895220
 C         3.5777559371        6.2074848764       -3.0322072470
 C         3.4938433431        8.6624366753       -2.5508214858
 H       -10.5044407873        4.5171391577        3.5763074055
 H       -10.6294909199        3.9836572454        5.3159690847
 H        -9.0876536034        4.2431057333        4.5520162122
 H        -7.8942152657       -1.1051189286        5.7909744427
 H        -8.1544587560       -1.5792839825        4.0930619586
 H        -8.6186944842        2.3146476196        6.7543535655
 H        -9.3959262447        0.6822342765        6.9121517341
 H       -10.4448072776        2.1868909187        6.5836559902
 H       -11.4449314310        0.5808972802        5.4726197366
 H       -11.0874654063        0.1407314341        3.8758684304
 H       -10.4396150319       -0.7458519467        5.1575431300
 H        -5.4553489772       -0.6456758221        5.3528217552
 H        -6.0531070726       -2.1413823556        4.3591382616
 H        -4.1666993918       -0.7889316671        1.0089213963
 H        -2.7438344483       -0.0439270005        0.8366203447
 H        -4.5376643146        1.5242893988        1.2617046898
 H        -3.4953425521        2.3309400834        2.3617769731
 H        -5.2799456625        2.2427640760        2.5919799660
 H        -3.9732347647        0.4141797655        5.4793862628
 H        -3.1747394014        1.6899336646        4.9028044915
 H        -4.8160797171        1.7878282851        5.0665900964
 H        -2.3535281463       -3.0319326728        1.5500265684
 H        -1.1881252655       -1.7348387930        1.5037586839
 H        -1.2385838429       -6.2262352596        0.0328200962
 H        -1.8454247252       -6.5156221108       -1.6335054316
 H        -3.1829292314       -4.7324350771        0.4606580856
 H        -4.0409583257       -4.8064105260       -1.2101644880
 H        -4.2100342365       -3.4057156677       -0.1620483272
 H        -3.2637534889       -2.3374180442       -2.6747895812
 H        -1.8433681977       -2.9582461621       -3.2067578268
 H        -3.0952145282       -4.1276533293       -3.1994534050
 H         1.0806631131       -6.5003312427       -0.8159662112
 H         0.2088746181       -7.9294407016       -1.2208897216
 H         1.9322249152       -5.8400629549       -5.9727016627
 H         0.8289486119       -5.0222054520       -5.0430612836
 H         3.5636837506       -6.8819949026       -1.6188833045
 H         3.5604640500       -8.3798425514       -2.6284700814
 H         2.2599410347       -8.1492957885       -1.5220665541
 H         1.7616780323       -9.0520519997       -4.1101855597
 H         1.3904889965       -7.7877969581       -5.2152723829
 H         2.9243416728       -8.1404361651       -4.8564109092
 H         1.7346522828       -3.6279450992       -6.7406448824
 H         3.3353505258       -3.7069817382       -6.2201879250
 H         5.0625554644        0.0470387015       -3.5070531063
 H         3.9911877337        1.3852371647       -3.9829594317
 H         4.9190774606       -0.4310017798       -5.7797943828
 H         4.4360130194       -1.8965926988       -6.5911355502
 H         5.0614767224       -2.0207765191       -4.9913101726
 H         1.2169910486       -0.0035969840       -5.9719231627
 H         2.7920094651        0.0847004141       -6.8559442554
 H         1.8298798562       -1.4245703377       -7.0200073617
 H         5.0320100094        1.2771765884       -1.5302186068
 H         3.4296684093        1.6695769331       -1.6004495086
 H         2.7500724513       -0.0754311796        2.9952782049
 H         2.9301870889        1.4677316360        2.0747899931
 H         4.5508450623       -1.7708075259        1.9923442609
 H         5.0847272017       -2.2734442561        0.2875409982
 H         3.4029274715       -2.6532117278        0.7917053711
 H         5.9209349815        0.1231954747        0.3666529874
 H         4.7534359205        1.4452362938        0.4486683671
 H         5.0320634134        0.5581539033        1.8608338345
 H         0.7037957775        0.4403615990        3.7468595355
 H         0.0576379528        0.2403055054        2.0657762676
 H         0.8758800314        5.7786979820        0.5166738240
 H         2.0803000720        6.1082480175        1.7348012122
 H        -0.9442886460        4.2733400957        3.7685490288
 H        -0.9233032616        4.7257754610        2.1446754530
 H         0.1718185920        5.6244057151        3.3554824012
 H         1.4304562697        4.0372718829        4.7673714741
 H         2.3056303248        2.7671010055        4.0641942899
 H         2.5703558187        4.5238915180        3.7052318085
 H         3.5948881078        4.8893134080        0.1653116129
 H         2.5334858035        4.9739869790       -1.0866448956
 H         5.6559883898        8.9646321759       -0.4831620258
 H         7.2498632253        8.0738193037       -0.7422220890
 H         6.4939706928        9.1393044644       -1.9549056489
 H         4.1269255708        6.4089988210       -3.8982621403
 H         2.5351442745        6.0628859159       -3.2038579568
 H         4.0327229348        5.3069227844       -2.6674100136
 H         2.4359471271        8.6050312039       -2.5693186407
 H         3.6479723129        9.3704585944       -1.8125528757
 H         3.7704592233        8.7163270842       -3.6631119172
 Na        0.9404018674       -1.7950368224       -1.8045267087
