155

 C         7.2341902324        0.6344438865        6.6021108577
 C         7.3470277897       -0.2981340074        5.3611326694
 C         7.3232939739       -1.8692965559        5.6142809505
 C         5.7096791466       -2.2140517903        5.4652057482
 C         5.3235068347       -3.4090391930        4.5658118945
 C         8.2065838629       -2.6209571645        4.5952415389
 C         7.6189496497       -2.1938712730        7.1231498215
 O         7.6857581863        0.1096405594        4.2520117424
 O         4.8714869382       -1.5867177429        6.0542321049
 C         3.7872115264       -3.7002884626        4.7305538210
 C         3.1535920274       -3.9065942799        3.3306610062
 C         1.6861691785       -4.5086015224        3.4181948788
 C         0.7028078073       -3.4819932356        4.3620193477
 C         0.2194630235       -2.2545027748        3.5938313707
 O         3.6361012618       -3.5432958022        2.3229881023
 O         0.5245182506       -3.5907794757        5.5558810198
 C         1.0181267452       -4.7457209234        2.0548994027
 C         1.6416489354       -5.8304037823        4.3574666977
 C        -0.1594497794       -1.0952292695        4.5618850897
 C        -1.0716373383       -0.1054181118        3.7384759506
 C        -1.9365647222        1.0125388629        4.4055388578
 C        -0.9266737804        2.1599020135        4.1529220968
 C         0.0060381708        2.7026089494        5.1993612407
 C        -3.2736444178        1.1977681638        3.7102796184
 C        -2.2360494115        0.6796708168        5.9385649488
 O        -0.9425181785       -0.1240827908        2.5210469372
 O        -0.9925191638        2.6562619199        3.0691063225
 C         1.3281393242        3.3241734452        4.6630896530
 C         2.5310317453        2.3642949086        4.2057757199
 C         3.8023948664        2.8225160658        3.2404445317
 C         3.4333396596        2.8721893109        1.7588149373
 C         2.3068028235        1.8669750713        1.2099744837
 O         2.4803855384        1.2073762662        4.5214539620
 O         4.0843832262        3.5874273741        1.0416983419
 C         4.2484961983        4.1894034207        3.6891686775
 C         4.8480822473        1.7643938728        3.4209856212
 C         2.4980668837        1.8003330793       -0.3368104845
 C         1.3400805736        1.1840790233       -1.1325565500
 C         1.4158377120        0.8526405600       -2.6870266023
 C         0.2355496497        1.5876551781       -3.3518770711
 C         0.1637990542        3.0928240211       -3.2118226891
 C         2.6743832340        1.5318833970       -3.3108953373
 C         1.3753212316       -0.6432071288       -3.1220487513
 O         0.2284363585        0.9016037064       -0.6811137125
 O        -0.6954383220        0.9768276780       -3.9233451994
 C        -1.3615320764        3.4087197193       -3.1792728716
 C        -1.9493922670        2.6728287971       -1.9672561990
 C        -3.1648340256        1.7569157514       -2.2416818706
 C        -2.9776144191        0.3113048922       -1.8346211091
 C        -3.4847239184       -0.8870829927       -2.6944477014
 O        -1.5984493798        2.8996511610       -0.8446065844
 O        -2.2870507016        0.0033127055       -0.9009372527
 C        -4.3398337190        2.4141988236       -1.3496805727
 C        -3.6194847923        1.8348898157       -3.7504847373
 C        -5.0193792158       -1.2797453120       -2.6713829390
 C        -5.3173266060       -2.1010131295       -3.9304735173
 C        -6.8664650888       -2.4134249627       -4.3979951238
 C        -7.1609035870       -0.8807123098       -5.0724936720
 C        -7.2028432790       -0.6617222929       -6.5008335682
 C        -7.0129240425       -3.6037313907       -5.3790481393
 C        -7.7855907371       -2.3511497988       -3.2657552324
 O        -4.3754749004       -2.3660226397       -4.7227392230
 O        -7.3107860551        0.0003328022       -4.2781668467
 C        -5.6487616174       -0.3451353088       -6.8548709199
 C        -5.6483086850       -0.0627905397       -8.3592564636
 C        -4.1906657431        0.1553634018       -9.0607062916
 C        -3.2796710323        1.1779373538       -8.1655607666
 C        -3.1826654131        2.6951854225       -8.4549326357
 O        -6.6213521388       -0.1073310309       -9.0550666463
 O        -2.6903024556        0.7051464094       -7.2159276817
 C        -3.5416276981       -1.2444048549       -9.0916493583
 C        -4.4221389467        0.6802982247      -10.5081028168
 H         6.3785331062        0.1713053146        7.1025435286
 H         7.9447654833        0.6833896600        7.3406954964
 H         7.0370210473        1.6620573209        6.2696755142
 H         5.6579940063       -3.1850816573        3.5681956665
 H         6.0756021334       -4.2410666954        4.8852758002
 H         9.2642567964       -2.2834208071        4.6495466505
 H         7.8764191882       -2.5559385361        3.5572355988
 H         8.2935359458       -3.7265844404        4.7243221329
 H         6.9411779881       -1.6794342507        7.9540939147
 H         7.5810608717       -3.2423577967        7.4114642382
 H         8.6211503971       -1.8924292886        7.4532594100
 H         3.6451065256       -4.5437198855        5.4389097857
 H         3.2334402997       -2.9462820256        5.2197933841
 H         1.0379389750       -1.9282150157        3.0214872011
 H        -0.6427377750       -2.4702753986        2.9431780120
 H         1.6540900307       -5.3971126021        1.4565424439
 H         0.9186638601       -3.7809067971        1.5232518815
 H         0.0882154366       -5.2576997601        2.2127161915
 H         2.0510198866       -5.7353498900        5.3320356967
 H         0.6113033955       -6.0670226448        4.5087986397
 H         2.0354750152       -6.7205590972        3.8818402551
 H         0.7446654373       -0.5045851395        4.9093088934
 H        -0.5866889699       -1.6458931817        5.5009972205
 H        -0.4917609840        3.4971552915        5.7697201529
 H         0.2334075774        2.1491931990        6.1232463281
 H        -3.9227262477        1.8099622848        4.3422386337
 H        -3.8694459806        0.2069548471        3.6425355455
 H        -3.1980611077        1.6353838455        2.7142762462
 H        -2.7651440686       -0.2409328940        6.0741227140
 H        -1.3115096285        0.5825529250        6.4916210308
 H        -2.8013929665        1.4861606079        6.3908218683
 H         0.8953190869        3.9382556756        3.8672371738
 H         1.9404545409        3.8144797519        5.4607929474
 H         2.5006975572        0.9285291147        1.7504261006
 H         1.3262916294        2.1531616778        1.4501848204
 H         4.7766110091        4.1230458687        4.6256680034
 H         3.4810694935        4.8876856466        3.9431250630
 H         4.9718895603        4.7185662697        3.0648440399
 H         5.8417621971        2.0716837105        2.9994914548
 H         4.9647369619        1.5312602346        4.4877432990
 H         4.5004131839        0.8265740708        3.0590936135
 H         3.3873124544        1.1925189695       -0.6007422092
 H         2.7305737610        2.7488411887       -0.7831602875
 H         0.4938367939        3.4397776308       -2.2496850097
 H         0.5675274982        3.7217085143       -3.9948580587
 H         3.6576385451        1.2734066674       -2.9202245569
 H         2.6961573938        2.6432214737       -3.3145897695
 H         2.6243974302        1.2632605456       -4.3215122779
 H         2.1652622608       -1.1005840945       -2.4428645685
 H         0.4019855928       -1.0164167079       -2.9739987134
 H         1.6615055046       -0.7764072739       -4.1604324058
 H        -1.3810195344        4.5345350241       -3.1677471648
 H        -1.8577879608        3.0936098560       -4.1116779762
 H        -3.2166580843       -0.7046469195       -3.7022897276
 H        -2.9004804177       -1.7299120991       -2.3298929087
 H        -3.8555081102        2.4809544764       -0.3582497288
 H        -5.2221194587        1.7886738019       -1.4263174123
 H        -4.5447317500        3.4552349233       -1.6978295166
 H        -4.0164812395        2.8945602780       -4.0928048468
 H        -2.7608234293        1.5340240744       -4.3607906700
 H        -4.4865249049        1.1827205319       -3.9903059482
 H        -5.6181633149       -0.3234381915       -2.7718132727
 H        -5.2548511353       -1.8069617337       -1.7754574355
 H        -7.4696074965       -1.4963382825       -7.1036737889
 H        -7.8223209676        0.2301503459       -6.7709859663
 H        -7.1968377771       -4.4921308742       -4.7558457427
 H        -5.9796587356       -3.5919107902       -5.8028028528
 H        -7.7739736223       -3.4369942530       -6.2218327954
 H        -7.8009068080       -3.3288897030       -2.8517076960
 H        -7.4275994281       -1.6296031324       -2.4799755206
 H        -8.7804944165       -2.0491622967       -3.5134639994
 H        -5.2182032631        0.4727991923       -6.2686627761
 H        -5.0217083305       -1.2423298139       -6.7023827027
 H        -2.2997821746        2.8066343315       -9.0184152841
 H        -3.9860039313        3.1562071053       -9.0215843275
 H        -3.0732191414        3.1560069163       -7.4930133718
 H        -4.3430972785       -1.9737477439       -9.2030474299
 H        -2.9840005406       -1.6009926892       -8.2412566555
 H        -2.7980757106       -1.2778196620       -9.8375620352
 H        -5.3246051223        1.2685786293      -10.5916479519
 H        -3.5909193925        1.3367199020      -10.8877655688
 H        -4.7678629181       -0.1819110008      -11.1173912972
 Na       -1.5156307403        1.3544170115        0.7994506503
