155

 C        -8.5914785232        3.7513686044        3.6773718887
 C        -9.7239194954        2.8393064480        4.2171872816
 C        -9.4127765478        1.7415156337        5.5832347492
 C        -7.8122086525        1.4232937105        5.5698030276
 C        -7.2120886259       -0.1535430053        5.5657137026
 C        -9.6153476867        2.5828797931        6.8633490025
 C       -10.2662639819        0.4853516522        5.5707339400
 O       -10.8132670063        2.8618818219        3.7044327869
 O        -6.9128613413        2.2583949576        5.3142719501
 C        -5.6685667344       -0.2103427392        5.4752299835
 C        -5.1304488872       -0.5202005258        4.1508169367
 C        -3.7950394102        0.3040068945        3.6602058219
 C        -2.9101705703       -0.5873093893        2.8102312802
 C        -3.1226759884       -0.6874051297        1.2230331048
 O        -5.7470391351       -1.1589022779        3.3182336186
 O        -1.9319370992       -1.1537826889        3.2444576924
 C        -4.3870554234        1.5381800798        2.8963987937
 C        -2.9958653451        0.6798132101        4.8999260358
 C        -3.0845918463       -2.0836960171        0.6685481238
 C        -2.0073138535       -2.1825731041       -0.4704211224
 C        -1.8458135786       -3.4624374876       -1.2810012162
 C        -0.3716746497       -4.0349321125       -0.8458292384
 C        -0.2216388442       -5.6330376429       -0.4823809192
 C        -2.9172409719       -4.5424230858       -1.0528010247
 C        -1.7760341566       -3.2448049523       -2.7936254168
 O        -1.3458821827       -1.1862546190       -0.6564845596
 O         0.6554698427       -3.5031194386       -1.1145593563
 C         0.8718197235       -6.2737552690       -1.3240156497
 C         0.4342374564       -6.5102518426       -2.7504071656
 C         1.4506412167       -7.1144456046       -3.7555065933
 C         2.4176738381       -5.9542699150       -4.4216431723
 C         1.7497660916       -5.1101024540       -5.4984997562
 O        -0.6650720336       -6.1265728680       -3.1175307976
 O         3.4946369429       -5.6197284158       -3.9749575032
 C         2.3928724241       -8.1817291113       -3.0400395092
 C         0.7902479558       -7.7637971776       -4.8791579764
 C         2.3755269111       -3.7170221106       -5.7962625539
 C         1.9096222830       -2.6219091075       -4.8013732012
 C         1.8085839051       -1.0739472851       -5.3853294956
 C         1.8343168363       -0.1840848349       -4.1329268006
 C         3.1856191764        0.5840108012       -3.7543009409
 C         2.8839706893       -0.8295646644       -6.4993032371
 C         0.3617613531       -0.9257992525       -6.0666924196
 O         1.4760826753       -2.8896322267       -3.6967403358
 O         0.7829379996       -0.0122914097       -3.5096525846
 C         3.4053958594        0.7831576393       -2.1975473352
 C         3.5376266774       -0.6250686969       -1.4853575384
 C         3.8233665289       -0.6906957925        0.1383223166
 C         2.5261588172       -0.3137936766        0.8175272719
 C         2.6587442627        0.2326548184        2.1879836961
 O         3.3274978426       -1.6593853088       -2.1080522871
 O         1.4373666942       -0.5829151263        0.2905328757
 C         4.1418315100       -2.1210156522        0.5252791566
 C         5.0532010336        0.1343022194        0.4940098486
 C         1.2259881033        0.5857517085        2.7674567364
 C         0.5154688226        1.6601114190        2.0324806525
 C         1.0438626936        3.2411787741        2.0431237060
 C         2.1902727676        3.3745431290        0.8799311912
 C         2.7773803703        4.7478840123        0.7306562295
 C        -0.1141685492        4.2014304510        1.8790108719
 C         1.7459586176        3.5337124160        3.3836065211
 O        -0.5024676823        1.4242142893        1.4756397376
 O         2.6538935508        2.4965081140        0.2152766274
 C         3.2605985171        5.2779100841       -0.6937655885
 C         3.3480724570        6.8016380644       -0.5470683382
 C         3.7211551783        7.6632035170       -1.8042741501
 C         5.2357609995        7.2628840043       -1.8289766314
 C         6.3242513206        8.3395966908       -1.4650941197
 O         3.3521586094        7.3083440421        0.5304424830
 O         5.5217290196        6.1207130073       -1.9782540061
 C         2.9943220773        7.1115540052       -3.0649467970
 C         3.4418523709        9.1330699094       -1.6399780131
 H        -9.0799543388        4.4755182416        3.0350044502
 H        -8.0788048338        4.3740206358        4.4677378274
 H        -7.7501517799        3.3701860193        3.0359124687
 H        -7.5189312409       -0.7163807405        6.3657890342
 H        -7.6401196744       -0.6863002650        4.7173450336
 H        -8.9567123518        3.4058543124        6.7976098280
 H        -9.2376426955        1.9564526281        7.7478515906
 H       -10.6615386897        2.8418370026        7.0113982566
 H       -11.3180178893        0.6691275489        5.7762116696
 H       -10.2380107101       -0.1332825420        4.6406264492
 H        -9.9222783914       -0.1908009435        6.4331195959
 H        -5.3910542836        0.7291797140        5.9571872163
 H        -5.3560102569       -0.9173676582        6.1761832012
 H        -4.1049828486       -0.4032848937        1.0614460803
 H        -2.2960396985       -0.1225048865        0.7250619047
 H        -5.0819814365        1.3022484659        2.1080295376
 H        -3.7387304043        2.2274121481        2.4464565492
 H        -5.0737303392        2.0612628948        3.5954302158
 H        -2.6326557561       -0.0664597075        5.5919861261
 H        -2.1269928374        1.3480298298        4.7378697653
 H        -3.5033125439        1.3897929150        5.5278761607
 H        -4.0234041241       -2.4559156445        0.2196906974
 H        -2.7186801532       -2.7935259595        1.4243963498
 H         0.0458581207       -5.6185376713        0.5833833518
 H        -1.2129239791       -6.0906916836       -0.5062490411
 H        -3.1729992761       -4.8458883088       -0.0917115849
 H        -2.7091675462       -5.4834433471       -1.5899459195
 H        -3.8398049870       -4.1388594079       -1.5237567731
 H        -2.8725870320       -3.1595412668       -3.1770412988
 H        -1.1772700788       -2.3050597276       -3.0962610664
 H        -1.4077272112       -4.1726723826       -3.2445359006
 H         1.7373073868       -5.6604185407       -1.2405323108
 H         0.9982808348       -7.1194716006       -0.7659621469
 H         1.9450292926       -5.6028608053       -6.4407226962
 H         0.6777303379       -5.0435684186       -5.2122446698
 H         3.1868346523       -7.6599165558       -2.4505070466
 H         2.9278683419       -8.8106617308       -3.7435460373
 H         1.7782042544       -8.7889689145       -2.3447019172
 H         0.1115672380       -8.5743495161       -4.6596424653
 H         0.2306885785       -6.9672373918       -5.4164266337
 H         1.4766981780       -8.1235152071       -5.7586083193
 H         2.0512739181       -3.4983680269       -6.8342248659
 H         3.4325209329       -3.8367651042       -5.7617230052
 H         3.8904216519       -0.1230510994       -4.1194650578
 H         3.3898391673        1.5936488772       -4.2724631049
 H         2.6233014787        0.1742602600       -6.8742409641
 H         2.7253104582       -1.4385306461       -7.3692990092
 H         3.8896808691       -0.8145161308       -6.1986256052
 H        -0.3456522373       -1.0495633782       -5.2726014154
 H         0.2309967956        0.0509734976       -6.5518213340
 H         0.3056640648       -1.6476783457       -6.9253031571
 H         4.3671262148        1.3252780613       -2.0183876007
 H         2.6145830426        1.3961917042       -1.6677348690
 H         3.0894558996       -0.5189446964        2.8969834021
 H         3.2132246152        1.0612942335        2.1858281018
 H         4.2734890283       -2.2584184133        1.6155504011
 H         5.0845783748       -2.5041480571        0.0987970170
 H         3.3554571649       -2.7481053227        0.1321326237
 H         5.9174289782       -0.3156215861        0.1007682584
 H         5.1226568351        1.0956546345       -0.0875629733
 H         5.1435129948        0.2655873105        1.6182188573
 H         1.5307214039        0.7403667544        3.8053020791
 H         0.6378465468       -0.3994535587        2.8745904048
 H         2.0328522900        5.4268029300        1.0004303058
 H         3.5317991093        4.9999972281        1.5592288876
 H        -0.8219422154        4.0044711759        2.6725336196
 H        -0.5590859234        4.0523870250        0.9329518634
 H         0.2761835132        5.2131196828        1.8304521705
 H         2.3611722062        4.5298462729        3.3079135179
 H         0.9231596853        3.7166559805        4.0583390601
 H         2.4994858767        2.7997664864        3.7747761065
 H         4.2620160685        4.7471684014       -0.8284645261
 H         2.4875813251        4.9743620371       -1.4394897647
 H         5.9337800962        8.9649468272       -0.6681659968
 H         7.1925800012        7.8789165474       -1.0686894427
 H         6.6040763830        8.9758841443       -2.3016014928
 H         3.3231626853        7.6275036236       -3.9456479267
 H         1.9674192525        7.2785998983       -2.9794251601
 H         3.1907605558        6.1167341616       -3.3487938203
 H         2.3153843945        9.1878469467       -1.4256707901
 H         4.1362506342        9.6222972639       -0.8822382208
 H         3.7443174912        9.6345909878       -2.4901324201
 Na        0.8241167412       -1.2708855622       -1.7760056663
