155

 C        -8.5085155889        3.4173273657        3.4170954740
 C        -9.5937901993        2.8901101016        4.3069294330
 C        -9.0341099511        1.9601201675        5.6228244913
 C        -7.5750771591        1.6167716322        5.5660569236
 C        -7.0569330977        0.1459214147        5.3359840368
 C        -9.3518217586        2.8462767603        6.9374076761
 C        -9.8408329535        0.6321826215        5.8596580577
 O       -10.7553057979        2.9243259007        4.0638777830
 O        -6.7519437060        2.4455001754        5.9402505153
 C        -5.4998045213       -0.0748904130        5.5487458664
 C        -4.9191620796       -0.4212267870        4.2206633289
 C        -3.5149458913        0.2987038366        3.7558472804
 C        -2.9050874758       -0.6475104276        2.7674653706
 C        -3.4150270359       -0.8127632078        1.2462210053
 O        -5.5395285923       -1.1532067169        3.4844687339
 O        -2.0965999152       -1.4413635740        3.1571471985
 C        -3.8692830122        1.7664346628        3.1089941948
 C        -2.7159081775        0.4001905579        4.9813231626
 C        -3.0443525510       -2.1491082006        0.7852651474
 C        -2.1195350955       -2.1960299905       -0.5107296104
 C        -1.8790467284       -3.6542973484       -1.1969643245
 C        -0.4308907334       -4.1267978612       -0.7854467439
 C         0.0002057556       -5.6545009418       -0.4573077630
 C        -2.8854314597       -4.6518049994       -0.5768066583
 C        -2.1657024600       -3.6214438279       -2.8264308681
 O        -1.6852123041       -1.1512834629       -0.9937522076
 O         0.5114963970       -3.3825356091       -0.7379900068
 C         1.0835286220       -6.0980047361       -1.4287073638
 C         0.4840823293       -6.5252819503       -2.6970774628
 C         1.2851978790       -7.1076978531       -3.8495792513
 C         2.0832798636       -5.8246681315       -4.4102573160
 C         1.6133233751       -4.9986003544       -5.5374185926
 O        -0.6236076513       -6.0922398772       -3.0157543599
 O         3.0984565036       -5.6392854570       -3.8686970598
 C         2.2870234767       -8.1716630042       -3.4473209832
 C         0.3679737894       -7.7245190146       -4.9862730978
 C         2.3071033280       -3.6318646360       -5.6518656327
 C         1.6299875135       -2.5456493830       -4.7500948622
 C         1.4871149900       -1.1251638929       -5.3024644296
 C         1.7390200241       -0.0928403832       -4.1250031644
 C         3.2539867247        0.3860435996       -3.8362788977
 C         2.4206915579       -0.6807936442       -6.4900772262
 C        -0.0047780487       -1.0693640434       -5.7634620160
 O         1.0030522111       -2.8558786733       -3.7545619537
 O         0.7717585608        0.3727632075       -3.5100050477
 C         3.4592840878        0.6889980943       -2.3830398611
 C         3.6112238079       -0.6944544396       -1.5960255054
 C         3.9351534215       -0.6762831151       -0.0968324234
 C         2.6209253666       -0.3773046104        0.6646388905
 C         2.7075339434        0.0660975455        2.1687516551
 O         3.4809650360       -1.6588515466       -2.2867177564
 O         1.5466472064       -0.6152018462        0.1891518836
 C         4.4559188127       -2.0849031516        0.3946917700
 C         5.0748128254        0.4325317534        0.0590016428
 C         1.2950966117        0.4867407135        2.7329170317
 C         0.5704124652        1.5545939776        1.8540342864
 C         1.0588301219        2.9680571370        1.9268832183
 C         2.3082785982        3.3052742979        0.9272327247
 C         2.9342166265        4.6877925041        0.8903513181
 C        -0.0693536000        4.0288277939        1.4789694627
 C         1.4670000728        3.5284999873        3.3182435084
 O        -0.5085189583        1.2345199229        1.3571254294
 O         2.7326665929        2.3659825048        0.2882686472
 C         2.5890196233        5.4642878165       -0.4614808467
 C         3.3132974829        6.8787764830       -0.4283297658
 C         3.7726609773        7.6102148699       -1.6986888145
 C         5.3303575392        7.3305871018       -2.0344539542
 C         6.4765391761        8.1819771281       -1.5423389585
 O         3.4272283263        7.3888279491        0.6609470749
 O         5.5854242223        6.3030517240       -2.6019500466
 C         3.0972529034        7.0876066030       -2.9342027869
 C         3.6210400762        9.1605965324       -1.5364207964
 H        -8.9511293189        3.8480137168        2.5423120098
 H        -7.8639340594        4.1414573955        3.8882084568
 H        -7.7279684815        2.7169811795        3.0668385120
 H        -7.5647409498       -0.4572354673        6.0304796121
 H        -7.2459622783       -0.3580407374        4.3573562459
 H        -8.6272903499        3.6373570853        6.9883220404
 H        -9.3675415356        2.2119741239        7.9150356047
 H       -10.2779753440        3.3912885414        6.6797479113
 H       -10.8674303076        0.8897053300        5.8481514223
 H        -9.6347607041       -0.1475924800        5.2059328776
 H        -9.6667482421        0.2011102163        6.9028435292
 H        -5.1058852172        0.6678056349        6.2601731890
 H        -5.4314047688       -0.9461583145        6.1495024794
 H        -4.4095886878       -0.9608934798        1.2522764571
 H        -2.9241064279       -0.0276067361        0.6594227180
 H        -4.5118349793        1.6956014541        2.2118350523
 H        -3.0286469685        2.3447071454        2.7730042228
 H        -4.4765374994        2.3513205016        3.7966218147
 H        -2.6144223083       -0.5647027574        5.4805335136
 H        -1.6629243956        0.6054885353        4.8335459191
 H        -3.0042209321        1.0817956490        5.7153783858
 H        -3.9381182154       -2.7576925645        0.5292819849
 H        -2.4578670480       -2.7122430329        1.5493544846
 H         0.2758883264       -5.6727277341        0.5879613909
 H        -0.8777924457       -6.3597664665       -0.4160720681
 H        -2.8720333577       -4.5438224915        0.4286252862
 H        -2.6974464736       -5.7297662327       -0.8864576507
 H        -3.9344290340       -4.6214487672       -0.7811776937
 H        -2.7864859013       -2.8012547801       -3.1365083814
 H        -1.1675224457       -3.4358410874       -3.3038605366
 H        -2.3013901356       -4.6935356760       -3.0440006312
 H         1.7770281793       -5.2824551152       -1.6111959568
 H         1.5795520124       -6.7963075476       -0.8271482710
 H         1.9898124196       -5.5920454798       -6.3791231272
 H         0.5228995071       -4.8655982732       -5.5793732460
 H         2.8177156508       -7.8833826490       -2.5276552497
 H         2.8602892757       -8.4793717160       -4.3530584342
 H         1.7338986898       -9.1329426503       -3.3535074671
 H         0.0415389743       -8.6329364345       -4.5865073076
 H        -0.4944672574       -7.2332053308       -5.3562326649
 H         1.0731925808       -8.1625528873       -5.7393344557
 H         2.2539362472       -3.3158699937       -6.7194775606
 H         3.3261351671       -3.7676170419       -5.3749651147
 H         3.9881551469       -0.3107245363       -4.2118646968
 H         3.3305171202        1.3638103066       -4.4527867062
 H         2.5323441516        0.4239479383       -6.2796256968
 H         1.9277247170       -0.9543953786       -7.4290714329
 H         3.4289059452       -1.1288435602       -6.5425909139
 H        -0.5905471830       -1.4444892272       -4.9615849381
 H        -0.4193794940       -0.1220318659       -6.1211381361
 H         0.0390450912       -1.8618498694       -6.5734802433
 H         4.2382754939        1.4396128161       -2.1419901825
 H         2.4319624691        0.9754649691       -1.9872821615
 H         3.2521495144       -0.7556087756        2.5144947261
 H         3.3177573631        0.9006444737        2.3323937605
 H         4.4523398283       -2.2298736884        1.5077539751
 H         5.4862286786       -2.2728400002       -0.0065446447
 H         3.8685206743       -2.9608359875       -0.0101302370
 H         5.8239823864        0.2248721523       -0.6889348359
 H         4.7473046200        1.5231463251       -0.0546698906
 H         5.5413848522        0.4099380351        1.0334882662
 H         1.3374163834        0.8563840545        3.7438173386
 H         0.8249741151       -0.4920321255        2.8193416156
 H         2.7102674209        5.3535421969        1.6554943603
 H         4.0695218356        4.4609862330        0.9060291296
 H        -1.0886530131        3.6478919436        1.6166977281
 H        -0.0317231130        4.1711916401        0.3919163068
 H         0.1110729417        4.9892565272        2.0031433978
 H         1.6490649368        4.6162266566        3.2902788548
 H         0.7807920529        3.3754119077        4.0804350473
 H         2.4025487733        3.1327092556        3.6694197651
 H         3.0981139180        4.8137073199       -1.2300611138
 H         1.5048488073        5.5276400944       -0.6269962099
 H         6.7247471981        7.7228306476       -0.5981885417
 H         7.3711417877        8.0995288689       -2.2422729101
 H         6.3017238173        9.2216362381       -1.3254136325
 H         3.1803551504        7.6787846509       -3.8640917140
 H         2.0479703198        6.8823779309       -2.7894552522
 H         3.4784965527        6.1141499846       -3.1752080266
 H         2.5620440442        9.6165947158       -1.7273154137
 H         3.7883174914        9.4212593978       -0.4315661623
 H         4.3194106133        9.6486553346       -2.2085460294
 Na        0.6781071342       -1.2814001022       -1.8388620193
