155

 C        -8.0159665568        2.9725370888        3.5773482640
 C        -8.9838757653        2.6668657648        4.6208617950
 C        -8.5221311244        2.4393634575        6.1455738730
 C        -6.9735636928        2.1287157525        6.2094739579
 C        -6.4025475218        0.7351327497        5.8972901609
 C        -8.9530459154        3.7540734354        6.7793094068
 C        -9.3287124175        1.2267587027        6.7198921705
 O       -10.1777103146        2.5269629605        4.3998366934
 O        -6.2096107300        3.0976387197        6.2299650544
 C        -4.8474510485        0.7266136630        5.8318499673
 C        -4.2718539743        0.1986521064        4.5185119846
 C        -2.7731422590        0.0393478837        4.2596438174
 C        -2.4378924112       -1.1630536495        3.3297023654
 C        -2.6595519642       -1.1043073712        1.8091081041
 O        -4.9317846246        0.0417118665        3.5281278494
 O        -1.7822695513       -2.0773408748        3.8027508022
 C        -2.2972918585        1.4132549084        3.6906823765
 C        -1.9827084485       -0.2554503738        5.5430674481
 C        -2.9555080660       -2.5245039271        1.2295284722
 C        -2.1965316512       -2.6761276005       -0.1650399392
 C        -2.1458803991       -4.1833845372       -0.8754304095
 C        -0.6145120771       -4.6950570009       -0.9809948709
 C        -0.3871410064       -6.1535313184       -0.5830459750
 C        -3.1028401175       -5.1690215012       -0.2039998299
 C        -2.5081466351       -3.9495879300       -2.4037830012
 O        -1.4787353483       -1.8167722366       -0.5714186951
 O         0.2846797091       -3.9897961844       -1.2816530756
 C         0.7313742023       -6.7388949709       -1.3849483343
 C         0.1387184637       -7.0490482092       -2.9190153531
 C         1.1458727285       -6.9777095099       -4.0517376069
 C         1.3722736129       -5.5150058638       -4.3268213167
 C         0.5081517511       -4.7257438836       -5.3989236579
 O        -1.0578955602       -6.9481389825       -3.1676954552
 O         2.2472387433       -4.9913965846       -3.6122480959
 C         2.4321025743       -7.7390970876       -3.6795641772
 C         0.6087279140       -7.6706551596       -5.3739343069
 C         1.1388108255       -3.3871030560       -5.8286901822
 C         0.5922606833       -2.2319149504       -5.0412143654
 C         0.9064381324       -0.7199983353       -5.4708532088
 C         1.4934227687       -0.0828035496       -4.2548915344
 C         2.9706829054        0.2903404552       -4.3141915593
 C         1.7304462383       -0.5970026250       -6.8067852912
 C        -0.5091844330       -0.1175461538       -5.7604366306
 O        -0.0774106812       -2.3695890864       -4.0574111258
 O         0.8618410861        0.2414449793       -3.2383178476
 C         3.5686894433        0.6177155100       -2.9794894131
 C         3.4157937129       -0.7357462129       -2.1551354526
 C         3.8977546822       -0.7401552330       -0.6940466786
 C         2.6785680423       -0.4694853983        0.2349015442
 C         2.8702783759        0.0707034874        1.6512054517
 O         2.7450646472       -1.6693496182       -2.6406028483
 O         1.5361559562       -0.5807961151       -0.1858946300
 C         4.6557683525       -2.1195462956       -0.5087111384
 C         4.8542185427        0.5107541137       -0.4984573768
 C         1.5728411624        0.4205623409        2.3983049787
 C         0.5246790463        1.4310410638        1.7738529362
 C         0.9226054690        3.0851287894        1.8790622297
 C         2.0279679463        3.4321034962        0.9004280295
 C         2.5146187728        4.9315116129        0.8790710465
 C        -0.3712932770        3.8404061454        1.4674935679
 C         1.1940814651        3.4233691880        3.3159740513
 O        -0.4425663988        1.0114637662        1.2402951534
 O         2.5105415629        2.6087326749        0.1220995976
 C         3.0737748873        5.4428382591       -0.5192670484
 C         3.7092503549        6.9305790151       -0.3361100664
 C         4.0776808837        7.8191264078       -1.6953060892
 C         5.2452171160        7.0777444143       -2.4403802887
 C         6.7087170585        7.6992693451       -2.2349216002
 O         3.8252484463        7.4047560258        0.7433030850
 O         5.0216236212        6.1457004238       -3.1738029964
 C         2.8411464906        7.8470104578       -2.6241611311
 C         4.3823033915        9.2319963193       -1.1312090187
 H        -8.6204022539        2.9993518642        2.6325791809
 H        -7.6537901135        4.0016963135        3.6476938041
 H        -7.1203845229        2.3593149549        3.3432392478
 H        -6.7060864194        0.0389872390        6.6544809734
 H        -6.8644557642        0.2604394218        4.9971971206
 H        -8.2854243967        4.6091058947        6.4333309481
 H        -8.7110613153        3.8099574048        7.7962338601
 H       -10.0139779985        3.9841869075        6.6153589142
 H       -10.4732504731        1.3001153486        6.6699326827
 H        -9.0288298328        0.2745052224        6.1711519159
 H        -8.9617956775        1.2500283456        7.7201679722
 H        -4.6777775730        1.7970074987        6.0067145547
 H        -4.3458910479        0.2664406527        6.6847598133
 H        -3.4808413529       -0.3703159351        1.6648759081
 H        -1.7520259078       -0.5889185517        1.2929190336
 H        -2.9775774223        1.8378078555        2.9505419072
 H        -1.3016358538        1.2279254188        3.2371529237
 H        -2.3337147151        2.0994554891        4.4997496568
 H        -2.1575935380       -1.3330986854        5.7789459054
 H        -0.9016992014       -0.0765283283        5.4165901327
 H        -2.3306130237        0.4657412515        6.3454841516
 H        -4.0460276313       -2.7390339760        1.1439807034
 H        -2.5724193096       -3.3132257320        1.8848991743
 H        -0.0207977063       -6.1841181404        0.4145125172
 H        -1.2514836590       -6.8583773782       -0.7288695725
 H        -2.5472353277       -5.4847293913        0.7958189972
 H        -3.3753149744       -6.0135862045       -0.8029660264
 H        -4.0136440471       -4.6128037474        0.0438085552
 H        -3.6209964340       -4.1011279949       -2.5372488749
 H        -2.1603326959       -2.9375812126       -2.6138958310
 H        -2.1229373464       -4.7473132109       -3.0293940208
 H         1.5531431044       -6.0178898423       -1.5370499303
 H         1.2474873727       -7.6346434129       -0.9340752660
 H         0.2934246277       -5.3692741992       -6.2730432286
 H        -0.5052896420       -4.5193523563       -5.0647852798
 H         2.9499649083       -7.3596391323       -2.7933150583
 H         3.1215930343       -7.5417699227       -4.5176972584
 H         2.2852685438       -8.8128249497       -3.5157603197
 H         0.6480246418       -8.7716227420       -5.1201996965
 H        -0.3725700613       -7.1876940828       -5.6053630262
 H         1.3058446716       -7.3999620906       -6.1356532384
 H         1.1195041556       -3.1536853334       -6.9284003992
 H         2.2111857284       -3.4388217871       -5.6079563114
 H         3.5490024620       -0.4496428450       -4.8703733298
 H         2.9598524655        1.1352671520       -4.9390127466
 H         1.7321961750        0.3539978031       -7.2161087393
 H         1.2979714257       -1.2797389937       -7.4913919295
 H         2.7509412392       -0.9109715194       -6.6760533470
 H        -1.0455626470        0.1747963860       -4.8148120384
 H        -0.3439652985        0.8371185649       -6.3308898598
 H        -1.1791552360       -0.7020245378       -6.4004950243
 H         4.6024665016        0.8674631536       -3.0483538202
 H         3.0814521721        1.4790439606       -2.4945464998
 H         3.4080888869       -0.6232807361        2.1961529066
 H         3.4776835629        0.9814819372        1.7379372084
 H         5.2643773406       -2.0080783607        0.4070600956
 H         5.3022688608       -2.4501165229       -1.3506513165
 H         3.9158111876       -2.9709670238       -0.4166617854
 H         5.7398406410        0.5249364131       -1.2423196325
 H         4.3259588756        1.4001181740       -0.7601736714
 H         5.1719471007        0.5839073329        0.5434685976
 H         1.8745636677        0.8902740568        3.3570148659
 H         1.0767042920       -0.5095205528        2.6215369577
 H         1.7985767226        5.5436953398        1.4784977568
 H         3.3494398118        4.8729885280        1.5914765122
 H        -1.0942916097        3.6864863233        2.2344467204
 H        -0.8486643198        3.5895439225        0.5158619508
 H        -0.1251932804        4.8566538835        1.2949825444
 H         0.9534513198        4.4251600191        3.6896733258
 H         0.5859776425        2.7479359617        4.0353988816
 H         2.2725014961        3.3398482462        3.6390093431
 H         3.7870309638        4.7821676178       -1.0007959891
 H         2.1764526708        5.4997863619       -1.1780495859
 H         7.4551291825        7.3750320912       -2.9463585644
 H         6.7221795025        8.7761442532       -2.1776046060
 H         6.9899448700        7.3891892915       -1.2116909066
 H         2.9017817435        8.3477805768       -3.5618496687
 H         2.0913929053        8.3809477041       -2.0966790958
 H         2.4078980298        6.9241394589       -2.8765791372
 H         3.5789387451        9.8249499175       -0.7868217292
 H         5.1893582589        9.2546869447       -0.4444202889
 H         4.8814192965        9.7795497197       -1.9411543536
 Na        0.2806761425       -1.5712056940       -1.9558591539
