155

 C        -7.8948388419        3.2677944580        3.6037540383
 C        -8.6951517695        2.5943734415        4.6850946696
 C        -8.2928039331        2.5363561086        6.1752806337
 C        -6.7360957293        2.2746735461        6.1574415024
 C        -6.3452761778        0.8176445024        5.9945823843
 C        -8.5402953513        3.8712871691        6.8253904277
 C        -9.0336032067        1.3228151701        6.8473564925
 O        -9.7305284484        2.0571689415        4.4943945056
 O        -5.9216803905        3.1881029654        5.9545117543
 C        -4.8086026490        0.5274791517        6.0427139860
 C        -4.1689410823        0.2646171649        4.6597932706
 C        -2.5861491559        0.0266975739        4.5533663066
 C        -2.4394529515       -1.3364423412        3.7677799537
 C        -2.7292494647       -1.3026492073        2.2158134695
 O        -4.9420443999        0.0645666411        3.7646541865
 O        -2.1459762484       -2.4009754455        4.2670266649
 C        -2.0030865315        1.1286970730        3.6264811866
 C        -1.8957355976       -0.2295921047        5.8896081728
 C        -2.6966524952       -2.7485241493        1.5906942931
 C        -2.0024654624       -2.7255213783        0.2333606270
 C        -2.2172912805       -4.0258681041       -0.6422121679
 C        -0.7904716464       -4.7294395206       -0.8768299694
 C        -0.5515248856       -6.1575986376       -0.5390865412
 C        -3.1474484948       -5.0200976153        0.0835887425
 C        -2.8719204957       -3.5591735294       -1.9186685011
 O        -1.4962157975       -1.7379581623       -0.2680846640
 O         0.1197689432       -4.0298489915       -1.3048003959
 C         0.5782111151       -6.6803769121       -1.3928574161
 C         0.0512219492       -6.8323539755       -3.0397201628
 C         1.2235711428       -6.9497389956       -4.2137745492
 C         1.4328314222       -5.4046399029       -4.7099747031
 C         0.3278026312       -4.8415018205       -5.6733183652
 O        -1.1175080331       -6.8622837969       -3.1694371059
 O         2.2444236443       -4.6399008216       -4.2306796447
 C         2.5774664129       -7.4240381229       -3.5992486359
 C         0.6665231668       -7.7745101746       -5.4301069761
 C         0.6462444134       -3.3763120564       -6.1505869197
 C         0.2588076074       -2.2090696654       -5.2830488840
 C         0.5356175728       -0.6969858689       -5.8292722479
 C         1.1239802341        0.0372245149       -4.5798830297
 C         2.7007281844        0.1129548658       -4.3978288960
 C         1.5038191023       -0.5362464749       -7.0313351830
 C        -0.8918364611       -0.0960788691       -6.1982703167
 O        -0.5140031185       -2.3060841713       -4.3705249183
 O         0.3330054038        0.3558610555       -3.6850737727
 C         3.1981123696        0.5072380311       -2.9581373085
 C         3.2606066930       -0.7297035872       -2.0337274983
 C         3.9249735113       -0.7932019773       -0.6823818311
 C         2.7049332635       -0.6074603362        0.3890084670
 C         2.9498188124        0.2591216840        1.5787684230
 O         2.6949778681       -1.7518127572       -2.4853216418
 O         1.7008089949       -1.2879955884        0.3008871418
 C         4.3332838154       -2.2177912964       -0.2315021551
 C         4.9568405464        0.3299516311       -0.4949659924
 C         1.6242054745        0.5015152709        2.3824367737
 C         0.8623045917        1.5515254421        1.4797542997
 C         1.0914487161        3.0742737145        1.6189098430
 C         2.0647021897        3.6130313964        0.4998610982
 C         2.0937702519        5.1752114923        0.3770778425
 C        -0.1594919070        3.8960422766        1.5626722667
 C         1.7760649674        3.3848749513        3.0611131736
 O         0.0004063169        1.1175388188        0.7622886143
 O         2.8204500472        2.9053096096       -0.1321918459
 C         3.0649896291        5.6045589064       -0.7420946126
 C         3.7268510026        6.9312339819       -0.3631782462
 C         4.1598409511        7.8364889374       -1.4687436436
 C         5.1955556018        6.9094292166       -2.3396623748
 C         6.4839771949        7.4529849365       -2.8300466272
 O         3.9740310627        7.2473367521        0.7773267273
 O         4.7976809461        5.7727776469       -2.5719603188
 C         2.8634409724        8.2305279370       -2.3250575318
 C         4.7554457518        9.1757775780       -1.0550759114
 H        -8.5379314771        3.8245503997        2.9495592133
 H        -7.2721595895        4.0805417497        4.0887434463
 H        -7.2819618626        2.7054506348        2.9058724678
 H        -6.7315443632        0.2963644644        6.8244182811
 H        -6.8521138934        0.3457443138        5.1657129326
 H        -8.4026233033        4.7284477674        6.0750399934
 H        -7.9383419061        4.1374946568        7.6852170672
 H        -9.6284525307        4.0513249323        7.0030787792
 H       -10.0981622592        1.5527619710        6.9797996457
 H        -8.8508178171        0.4910391858        6.0632160011
 H        -8.5697315632        1.1082114695        7.7636824563
 H        -4.2752197992        1.3584730054        6.3976343739
 H        -4.6327094970       -0.2610898524        6.7678016832
 H        -3.6307196135       -0.6527725221        2.0579369326
 H        -2.0043203116       -0.6034500770        1.6897408172
 H        -2.3911390988        1.0445426755        2.6368640819
 H        -0.9538727259        0.8618074574        3.5679191754
 H        -2.3092062027        2.0809272338        4.0100564674
 H        -2.4483883440       -0.9994362652        6.3616813724
 H        -0.9875424779       -0.6870746233        5.6717611890
 H        -1.8323755271        0.7323323305        6.4302734586
 H        -3.7278274972       -3.2019928691        1.5735647491
 H        -2.1029113363       -3.4452985102        2.2105675743
 H        -0.0718419063       -6.2213546079        0.4461290774
 H        -1.3176775194       -6.8801825137       -0.7001611411
 H        -2.8137016795       -5.2889570547        1.1017540439
 H        -3.2952810214       -5.7751714846       -0.6189468241
 H        -4.1276227265       -4.5229024525        0.2623876640
 H        -3.5262067745       -2.6227927544       -1.6621173151
 H        -2.0072965100       -3.1849175176       -2.5358321017
 H        -3.3075494668       -4.4115035521       -2.4132298130
 H         1.4780601505       -6.1002022191       -1.3714146476
 H         0.8355078942       -7.7140077365       -1.1239553028
 H         0.2492189841       -5.3663262803       -6.6447908780
 H        -0.6246008207       -4.8897298024       -5.1625845631
 H         3.0859919722       -6.6103823460       -2.9759286931
 H         3.2918725532       -7.7716857716       -4.3294849510
 H         2.4498097889       -8.3128955868       -2.9224459062
 H         0.5038886399       -8.8097168848       -5.0798793260
 H        -0.3555969327       -7.3493359068       -5.5097726812
 H         1.4148972849       -7.6970711321       -6.2527297808
 H         0.3465214644       -3.1365589304       -7.1853026682
 H         1.7294572917       -3.3690805154       -6.1456431685
 H         3.1960824023       -0.8658645925       -4.7073891993
 H         3.0774080611        0.8448194071       -5.0644640456
 H         1.6563557140        0.4684727056       -7.4948758151
 H         1.0804410289       -1.1441831058       -7.8922652235
 H         2.4506230641       -1.1078160578       -6.9498774947
 H        -1.7008330772        0.0453986568       -5.4426630356
 H        -0.6615138201        0.9539251661       -6.3932180827
 H        -1.3143189804       -0.5451029493       -7.0478276829
 H         4.2189478391        0.8791164985       -3.0951861495
 H         2.6866394266        1.3763500118       -2.4521318855
 H         3.5830726022       -0.1676872474        2.3689380650
 H         3.3319163280        1.1799906948        1.3337388666
 H         4.3071153864       -2.2363007911        0.8645016699
 H         5.3663734809       -2.4850706817       -0.5131018114
 H         3.5953003365       -2.9453476709       -0.6035320866
 H         5.7749847552       -0.0467323308       -1.1543656045
 H         4.6197233114        1.3251855962       -0.7719595554
 H         5.3082446378        0.4021634312        0.6023667748
 H         1.8079122726        0.7338006732        3.4953018337
 H         0.9782895480       -0.4050808994        2.3063577428
 H         1.0032580002        5.5386657052        0.3165559080
 H         2.3383875468        5.5409510585        1.3687889323
 H        -0.9027515463        3.5248257208        2.2711711613
 H        -0.6516560939        3.8890581077        0.5788017643
 H         0.0341372794        4.9538761045        1.7798090262
 H         1.8875592902        4.4820809765        3.2940227654
 H         1.1575215623        3.0102083601        3.8695088963
 H         2.7105007927        2.8672847899        3.2268038182
 H         3.7869554347        4.7995273077       -0.9577708602
 H         2.4720079048        5.9424606031       -1.6686592315
 H         6.9867803248        6.5072960589       -3.1164398666
 H         6.4980818751        8.1070837653       -3.6276415862
 H         6.9576226008        8.0344668391       -2.0037479323
 H         2.8564588339        9.1471681149       -2.9255629681
 H         2.0735844465        8.4492060282       -1.5944672394
 H         2.3268159030        7.4541310126       -2.8732799240
 H         4.1223922638        9.7622349024       -0.3412391066
 H         5.7478833561        9.1698957735       -0.4986988541
 H         4.9846303313        9.7123143694       -1.8783926781
 Na        0.3977197857       -1.6777557090       -1.8757206478
