155

 C        -8.4764974658        3.4913015412        3.7870421209
 C        -7.8789628089        2.3986502583        4.6659715043
 C        -7.2562212672        2.9490776429        6.1070812760
 C        -5.9883485959        2.0523648103        6.5070540993
 C        -6.0509615156        0.4486856305        6.3959513521
 C        -6.6818030427        4.3980773463        6.1023766933
 C        -8.4432419354        2.8060440229        7.0881659487
 O        -7.8099280279        1.2911761501        4.1829793092
 O        -4.9912226706        2.6630164185        6.9446390985
 C        -4.7039380081       -0.2272663694        6.7140630049
 C        -3.7174727642       -0.0273813122        5.4410961998
 C        -2.1444482097       -0.3590106626        5.4152087966
 C        -1.8890990737       -1.6120721788        4.3712835541
 C        -2.0631931017       -1.3235997014        2.8743303784
 O        -4.2443546884        0.3328700194        4.3875727700
 O        -1.9305900948       -2.7726869911        4.7615614494
 C        -1.4452653553        0.9295174548        4.9319052283
 C        -1.7711620978       -0.7776711555        6.8012454903
 C        -2.4189283627       -2.6949119440        2.1629460788
 C        -2.0983706334       -2.8001591396        0.6662619475
 C        -2.3521669572       -4.1973464105       -0.1484639210
 C        -1.0360310820       -4.9303544948       -0.4686822665
 C        -0.9895984152       -6.3902450956       -0.9583651366
 C        -3.1588474808       -5.1012046210        0.7837432301
 C        -3.0119240512       -4.0083539928       -1.4647466650
 O        -1.7598604294       -1.8301805055       -0.0098540944
 O         0.0102745632       -4.2850086317       -0.3111389926
 C         0.1509564109       -6.7824095250       -1.9764881863
 C        -0.2063942646       -6.3607694700       -3.4524870519
 C         0.8934625931       -6.3474095611       -4.4956876249
 C         0.6668478727       -5.2942174153       -5.5653206743
 C        -0.6917027441       -4.6941754919       -5.9526524148
 O        -1.3844358846       -6.4314360064       -3.6774980443
 O         1.6252279181       -4.9770885343       -6.2424656404
 C         2.2689569164       -6.0894724662       -3.8786403360
 C         0.8215388409       -7.8518492548       -5.0631668276
 C        -0.4991670372       -3.2227994557       -6.5427199360
 C        -0.3971541981       -2.3039463488       -5.3143764686
 C        -0.5064309951       -0.7316880722       -5.4609282259
 C         0.2617537988       -0.1086242225       -4.2477415664
 C         1.7074824995        0.4222882752       -4.4429666018
 C         0.1347037708       -0.2157885579       -6.9159740218
 C        -2.0269232990       -0.4349279541       -5.4581244371
 O        -0.2157865057       -2.7523254557       -4.2096090436
 O        -0.2600674603       -0.1262037357       -3.1540054358
 C         2.6477665170        0.4443628291       -3.2571150430
 C         2.7929095720       -0.8389090457       -2.5893770525
 C         3.5006301152       -0.8683754923       -1.1460921473
 C         2.3473176204       -0.3501439087       -0.1695332671
 C         2.8780312882        0.4462832775        0.9929583727
 O         2.2888986473       -1.8749632279       -2.9741711482
 O         1.2016928893       -0.5406190319       -0.3924884380
 C         3.8824516795       -2.2562480502       -0.6668815515
 C         4.7334039864        0.0530068742       -1.2185800864
 C         1.8208806718        0.8179248544        2.0058558831
 C         0.9626796617        2.1423880627        1.6219095005
 C         1.5316948227        3.5674176681        1.7851045842
 C         2.0673463685        3.9024143759        0.3293809328
 C         1.8785641654        5.3219833412       -0.3058411773
 C         0.4461966624        4.5591078356        2.1980766993
 C         2.8059791848        3.5707112962        2.7878876111
 O        -0.1220582388        1.9946691893        1.1552338422
 O         2.5762794248        3.0293981282       -0.3885396798
 C         2.8907346705        5.6526828875       -1.3773106728
 C         3.8894103862        6.6124433968       -0.7822556772
 C         4.8176264146        7.5866693478       -1.6609054514
 C         5.3231586245        6.8543944063       -2.9928614678
 C         6.1136491785        7.8126320485       -3.9813124838
 O         4.0076864093        6.5065052577        0.4442792135
 O         5.2598527937        5.6465049638       -3.2318824381
 C         3.8455133235        8.7752542134       -2.1072753570
 C         6.0632216726        8.0235836344       -0.7849184598
 H        -9.3010706904        3.9227829113        4.2693653277
 H        -7.7639747632        4.3356424242        3.5990021431
 H        -8.7178440397        3.0315477726        2.8892333886
 H        -6.8214581099        0.1961868856        7.0134676002
 H        -6.3595631255        0.3151028687        5.3770305670
 H        -6.1352162415        4.7041703266        5.1537637763
 H        -5.9064315360        4.4419540665        6.8160893306
 H        -7.4897323234        5.1132003967        6.2296550320
 H        -9.2707098572        3.3600311502        6.7105041061
 H        -8.7222028010        1.7772797750        7.3697009379
 H        -8.2244754910        3.3093367233        7.9936338861
 H        -4.1793286041        0.2798682099        7.5359650639
 H        -4.7822858981       -1.2476218637        6.7791502308
 H        -2.9782884950       -0.7439486740        2.7175733727
 H        -1.0568550749       -0.9828187894        2.4164601139
 H        -1.5783044176        1.0701876235        3.8393378119
 H        -0.3366828172        1.0156531794        5.1075824519
 H        -2.0737278618        1.7030205592        5.3024702831
 H        -2.0975676113       -1.7909172377        7.0328356892
 H        -0.7490440902       -0.7068091132        7.0174652969
 H        -2.2683547425        0.0005313081        7.4183027605
 H        -3.4628726128       -2.8720861673        2.3943880532
 H        -1.9417180170       -3.4781564048        2.7931538366
 H        -0.9549046726       -6.8276609863       -0.0353873746
 H        -1.9016415972       -6.8817286143       -1.3387373007
 H        -2.7707678821       -5.1746426549        1.7631345316
 H        -3.2683604807       -6.0195667719        0.3015135112
 H        -4.1798220054       -4.6758966217        1.0153634718
 H        -4.1237222005       -3.8047137848       -1.4111420065
 H        -2.5875060835       -3.1750821326       -1.9928115160
 H        -2.9434829984       -4.8757453262       -2.0152275791
 H         1.0581407898       -6.5519380694       -1.3706802295
 H         0.1340333290       -7.8775154364       -1.8737664836
 H        -1.1616355349       -5.3092926052       -6.7075470006
 H        -1.4233662262       -4.6774194326       -5.1147068140
 H         2.3001071868       -5.3294106593       -3.1016638229
 H         2.8635834649       -5.7906629204       -4.6903038169
 H         2.7084605080       -6.9569887269       -3.4512722062
 H         1.3246739565       -8.4137159061       -4.3087201804
 H        -0.1941483283       -8.1459780976       -5.1568703566
 H         1.3429558717       -7.9256138624       -6.0510861386
 H        -1.2811488846       -2.8602047062       -7.2264827771
 H         0.4669398265       -3.1102193666       -7.0210779281
 H         2.0446753366       -0.2785397645       -5.2059205058
 H         1.5696506285        1.3951311910       -5.0075858995
 H         0.2148275346        0.9054563177       -7.0681757262
 H        -0.6773983035       -0.4583655202       -7.7012055964
 H         1.0443179857       -0.8255650056       -7.1130464426
 H        -2.4984423282       -0.8843661854       -4.5538196829
 H        -2.3185617513        0.6208827485       -5.3575680673
 H        -2.5454185132       -0.8545941727       -6.3104972231
 H         3.6236119984        0.7138156082       -3.7578986504
 H         2.3961365198        1.3138965784       -2.6415858059
 H         3.5452346136       -0.2061026131        1.5519261170
 H         3.4342807101        1.2479197927        0.6674842570
 H         3.8122288986       -2.3085139658        0.4189037496
 H         4.8717003044       -2.6051055895       -1.0164648806
 H         3.0933373288       -2.8938788701       -1.0785102836
 H         5.4316800687       -0.3321936517       -1.9572070455
 H         4.3488841473        0.9908325959       -1.5567790499
 H         5.1863180596        0.2398369659       -0.2050778241
 H         2.2328594303        0.9400392772        3.0855984975
 H         1.1024181790       -0.0492008861        1.9197761641
 H         0.9298996640        5.1577105207       -0.7098903263
 H         1.9841737472        6.1230221575        0.4934699027
 H        -0.1236817178        4.0671718486        2.9714802548
 H        -0.1882624012        4.8077838928        1.3150368719
 H         0.8027741726        5.5480475117        2.4901914576
 H         3.2464801221        4.5408467555        2.6626962548
 H         2.4410485419        3.5466148275        3.7552467639
 H         3.4625120209        2.8010552770        2.5278876537
 H         3.4417441691        4.7726164607       -1.8202920789
 H         2.5259388613        6.1933461589       -2.2574463444
 H         6.2936410136        7.4005918601       -5.0307454284
 H         5.4608995031        8.6108154185       -4.1279594798
 H         7.1030750446        8.2314538009       -3.6531697456
 H         4.3046317830        9.3964766082       -2.9020323771
 H         3.6104525016        9.4184516460       -1.2322936607
 H         2.9122943232        8.2834092224       -2.4096141680
 H         5.9999458221        7.8888058085        0.3462045295
 H         6.9853198683        7.4705265877       -1.1288230825
 H         6.2959293556        9.0003492822       -1.1698953110
 Na       -0.0176285776       -2.1183598071       -1.8452292184
