155

 C        -7.2276252513        3.1479142275        3.6294407083
 C        -7.2818079650        2.4821205341        5.0559604285
 C        -6.2271055450        2.8448829220        6.0303834416
 C        -5.0398265657        1.7772084370        6.0314468765
 C        -5.4381680768        0.2680310987        5.8078579832
 C        -5.6318135981        4.3139380818        5.8012927911
 C        -6.8839192675        2.8905110609        7.3816485141
 O        -8.1679569346        1.6327958788        5.2899681867
 O        -4.0066215696        2.1619513274        6.5299878373
 C        -4.3101397837       -0.7447791535        5.8995994315
 C        -3.1216066621       -0.3664933280        5.0236442185
 C        -1.6472625717       -0.8874687455        5.3556659843
 C        -1.6321271135       -2.2446332962        4.4853919417
 C        -1.5686570867       -2.0191028298        3.0390479753
 O        -3.2526851285        0.2881713209        4.0097402052
 O        -1.8067971224       -3.2844509399        5.0994441575
 C        -0.7745365251        0.1918355809        4.7423318345
 C        -1.2599946253       -1.2496582028        6.7825015838
 C        -2.1602004911       -3.2604089953        2.3474660268
 C        -2.1221951386       -3.1674005518        0.8247818996
 C        -2.1449407740       -4.5135189278        0.1241677399
 C        -0.6743651878       -4.8224769618       -0.3765624284
 C        -0.1712507056       -6.2129500549       -0.5683737994
 C        -2.5385120579       -5.6466937711        1.0157402920
 C        -3.0048611005       -4.4698043752       -1.1999995409
 O        -2.0061775156       -2.1157525543        0.1966206228
 O         0.0291448450       -3.8525213692       -0.5428762984
 C         0.5732820067       -6.3207537879       -1.9889359307
 C        -0.5093906519       -6.5460387524       -3.2239798541
 C        -0.0254754354       -6.4673317033       -4.7460453566
 C        -0.0727270492       -4.8968163251       -4.8545620656
 C        -1.2378977588       -4.2815022646       -5.6320690683
 O        -1.6483564629       -6.7144422715       -2.9458595189
 O         0.7560335786       -4.1960471556       -4.4246247375
 C         1.4035646593       -6.9851111363       -4.9369006389
 C        -1.0703272395       -7.1771401394       -5.6760085346
 C        -1.1252443742       -2.7826034238       -5.9688551701
 C        -1.4739967934       -1.9244979934       -4.7289256608
 C        -1.8192534527       -0.3873558462       -4.8818968171
 C        -0.6242650294        0.2524208834       -4.1130624003
 C         0.7127405494        0.4462743311       -4.8642716509
 C        -1.7510004507        0.0832923483       -6.4034695245
 C        -3.2046292381       -0.0752987100       -4.1283267152
 O        -1.3780669984       -2.3365102055       -3.5796869459
 O        -0.7434078110        0.5276445479       -2.9494372652
 C         1.8825550325        0.4761182307       -3.8342719173
 C         1.9952149065       -0.7075051680       -2.8111164954
 C         3.0227707183       -0.4005186789       -1.4621941151
 C         2.1615384430        0.1436575938       -0.2349190970
 C         3.0005991213        0.8282547481        0.8276612383
 O         1.5162760727       -1.8130562098       -2.9241609691
 O         0.9974806923       -0.1852027296       -0.0515144615
 C         3.5645918890       -1.7605375921       -1.0268039943
 C         4.2379036570        0.4909674847       -1.8437182923
 C         2.2204086423        1.2171765960        2.0498716312
 C         1.3901076624        2.5234390216        1.8529295359
 C         2.1500637134        3.9403388790        1.4907655886
 C         2.2349616213        4.1882356844       -0.0626399011
 C         1.7955288674        5.7086794219       -0.5415199583
 C         1.3392851917        5.0432905415        2.1232165049
 C         3.5825570199        3.8071803454        2.1276853575
 O         0.1881830109        2.5243384663        2.0612292902
 O         2.5046669813        3.3106051505       -0.9328044853
 C         2.7420948709        6.1693109444       -1.6608562663
 C         4.1885144104        6.0953640479       -1.2246245035
 C         5.2847960385        6.9424884425       -1.9802202926
 C         5.3307051080        6.5752493317       -3.5537474876
 C         6.3004747712        7.4794249308       -4.4535069962
 O         4.5812355248        5.2217273973       -0.5022491659
 O         4.6104240642        5.7067464737       -3.9923352086
 C         4.9430973582        8.5569483680       -1.6091659742
 C         6.7325914510        6.6206214233       -1.4650116320
 H        -6.8677162559        4.1527384713        3.6787410087
 H        -6.5371324289        2.5413697007        2.9095560735
 H        -8.2474170286        3.1883802008        3.2435872830
 H        -6.1523932231       -0.0183072798        6.5261350874
 H        -5.9792055940        0.2210063609        4.9126866304
 H        -5.0712693070        4.3175023494        4.8315355565
 H        -4.9529466965        4.5715156240        6.5574276455
 H        -6.5078314202        4.8878451794        5.6572055224
 H        -7.6590673910        3.6332111434        7.4508494641
 H        -7.3283869288        1.9324475467        7.6201340935
 H        -6.1814535253        3.1315657931        8.1807779267
 H        -3.8579690889       -0.8830027276        6.8731171289
 H        -4.6782224609       -1.7349463625        5.7417126427
 H        -2.1065497437       -1.1674125156        2.6104569300
 H        -0.5740087579       -1.5961277919        2.6749284186
 H        -1.0602682845        0.2527129685        3.6774955073
 H         0.3033319752        0.0252523527        4.7740247635
 H        -0.9804606831        1.1710279119        5.0597399732
 H        -1.7368915112       -2.0717479858        7.3754564671
 H        -0.2305858853       -1.5932219473        6.7585903559
 H        -1.2006120492       -0.3385910036        7.4871571410
 H        -3.0882219985       -3.4186994063        2.8928597059
 H        -1.5643377240       -4.1125966836        2.6905864156
 H         0.5772269985       -6.4202132040        0.0768713382
 H        -1.0003957842       -6.9604719603       -0.5940904401
 H        -1.8039989682       -5.9542490781        1.7060776856
 H        -2.7119579837       -6.4490419036        0.3698630667
 H        -3.4132218129       -5.5102550759        1.7084107218
 H        -4.0986950119       -4.6722024624       -1.0655172053
 H        -2.9149772138       -3.4702901274       -1.6037266774
 H        -2.7888448746       -5.1961665467       -1.9099392297
 H         1.0667229420       -5.4149993722       -2.3617213800
 H         1.2519841629       -7.1436249270       -2.0782626630
 H        -1.4209817873       -4.8690252093       -6.5214169914
 H        -2.1409768960       -4.3221780729       -4.9903556544
 H         2.0231597509       -6.5725523437       -4.0994606953
 H         1.7270232563       -6.6265507777       -5.9186810060
 H         1.5089932492       -8.0854755989       -4.8718313332
 H        -1.0306010818       -8.2102111189       -5.4229075914
 H        -2.0514247193       -6.8109253078       -5.4670631654
 H        -0.9930620613       -6.9513668605       -6.7734885994
 H        -1.8110907879       -2.3931984789       -6.6880385392
 H        -0.1043228440       -2.4474503061       -6.2328235245
 H         0.7872059855       -0.4816303339       -5.4280220500
 H         0.8424831127        1.3466100271       -5.5733340862
 H        -2.0547257350        1.1307620137       -6.5021443054
 H        -2.4517575450       -0.4943434073       -6.9902895765
 H        -0.7982700034       -0.1190229966       -6.7826828078
 H        -3.2376157385       -0.5015045543       -3.1485084817
 H        -3.4119436781        0.9755629600       -4.0045527548
 H        -4.0785458188       -0.3533275711       -4.7227904521
 H         2.8477404256        0.4697396253       -4.4240234871
 H         1.9098527847        1.4428436055       -3.2415425124
 H         3.6968780207        0.0536508555        0.9352446718
 H         3.5034871983        1.6338464876        0.4069944627
 H         3.1156084921       -2.1579632310       -0.1492834967
 H         4.6311105889       -1.7551748730       -0.8577264547
 H         3.3586204633       -2.4699064601       -1.8297205664
 H         4.6446044003        0.3172234781       -2.8026394715
 H         3.9703268731        1.5036212125       -1.9311506526
 H         5.0578897650        0.4968520337       -1.1062118367
 H         2.9685221198        1.1711742800        2.8919281484
 H         1.6047237344        0.3143202030        2.3496461924
 H         0.7570627841        5.8710776022       -0.8523433113
 H         1.7817305135        6.4426522838        0.2257161662
 H         1.0904771029        4.7500156696        3.1133097550
 H         0.3806411880        5.0021795450        1.5560458894
 H         1.6589783902        6.0601897914        2.0969134082
 H         4.1309765754        4.7906872345        1.9313537442
 H         3.4386438224        3.7882603225        3.2037005113
 H         4.0941659163        2.9430226907        1.6930579545
 H         2.7040759374        5.3830304041       -2.4282902526
 H         2.3485672721        7.0796401542       -2.1174119857
 H         6.5530738672        6.9614150966       -5.4211966346
 H         5.8140006968        8.3615073628       -4.6970834563
 H         7.2443723647        7.7307107237       -3.9517447167
 H         5.8619052961        9.0966019604       -1.6000270953
 H         4.5317731819        8.5246061510       -0.6175953487
 H         4.2881855407        8.9111161799       -2.3533385151
 H         6.7300895677        6.9495584388       -0.3980148900
 H         6.8948070004        5.5527504841       -1.5220850545
 H         7.5102935616        7.1143759727       -2.1601031133
 Na       -0.5343217455       -1.6972309642       -1.4575217486
