155

 C        -7.0685665822        2.8869408292        3.5426170040
 C        -7.2613856036        2.5224626742        4.9977641525
 C        -6.0696191903        2.7647202979        6.0618010397
 C        -4.8947113956        1.7670489491        6.0153769806
 C        -5.3711765342        0.3061462955        5.8403122008
 C        -5.4938473671        4.2352589116        5.8351644489
 C        -6.5789327487        2.6207983058        7.5761167027
 O        -8.2693828624        1.9275156300        5.3077188288
 O        -3.7230788520        2.0407118584        6.3669520693
 C        -4.1700900690       -0.5541820656        6.2528475063
 C        -3.1244779077       -0.2447332745        5.1595661178
 C        -1.6569986932       -0.7646471920        5.4134741205
 C        -1.5632773846       -2.0590721798        4.5300834290
 C        -1.3573527467       -2.1452170535        2.9910102677
 O        -3.4348101366        0.2637253038        4.0756802079
 O        -1.9463852204       -3.1164406685        5.0401348500
 C        -0.5067778200        0.2025340736        4.9023907959
 C        -1.3468280226       -1.1208101748        6.9394129578
 C        -2.3051437270       -3.2334843381        2.3877694030
 C        -2.1210678855       -3.3425322052        0.9438328189
 C        -2.0408145762       -4.6967768921        0.1623491403
 C        -0.5577832820       -4.8577837267       -0.4102768937
 C         0.0249050256       -6.2836015319       -0.8287529864
 C        -2.6232480017       -5.8929404886        0.9421870385
 C        -2.9126839905       -4.6168728712       -1.0746172177
 O        -1.9698771024       -2.3232152906        0.2773529646
 O         0.1800218426       -3.8883155092       -0.6001763643
 C         0.5411531919       -6.2271884566       -2.2169380824
 C        -0.6181081060       -6.6076770291       -3.2253783972
 C        -0.1902828207       -6.4485426575       -4.7443751758
 C        -0.2794347303       -4.8661746510       -4.9137017612
 C        -1.3367802393       -4.2476077132       -5.7268863165
 O        -1.7185807032       -7.0628883479       -2.8534593010
 O         0.5524118906       -4.1171886367       -4.3970216825
 C         1.2163031876       -6.9456601544       -5.0578388541
 C        -1.2062335104       -7.2080452893       -5.5484297567
 C        -1.2221553017       -2.7501762562       -6.0102664437
 C        -1.5615152784       -1.9371332821       -4.6098869378
 C        -1.7325584227       -0.4042507046       -4.7031666477
 C        -0.5193710313        0.3121686458       -3.8972053880
 C         0.7623323137        0.5457505423       -4.7279228851
 C        -1.8526616733        0.1543160182       -6.2136866637
 C        -3.0632928026       -0.0813834056       -4.0432728631
 O        -1.7058864676       -2.4864029261       -3.5677711257
 O        -0.7263305522        0.6454176617       -2.7510398321
 C         1.9095727323        0.8088725689       -3.7548282744
 C         1.9047349515       -0.5017802523       -2.7224023601
 C         2.9277019230       -0.4243173618       -1.5588907065
 C         2.0338369802        0.0113023486       -0.3608227293
 C         2.9397531262        0.6887516327        0.7375073962
 O         1.1025086361       -1.3576305314       -2.9179006459
 O         0.8525332059       -0.1138917009       -0.3137137919
 C         3.5311003794       -1.8272773590       -1.2831155368
 C         3.9395317908        0.6402088144       -1.9528170112
 C         2.2537904404        1.2741586397        1.9448812073
 C         1.4425256630        2.5366097530        1.8046040615
 C         2.1371165260        3.9675166150        1.5411617922
 C         2.2573883235        4.1872463227       -0.1580098536
 C         1.9507784224        5.5820031044       -0.6347050445
 C         1.2326756870        5.0164237053        2.3276238406
 C         3.6318251937        4.1359555635        2.0938714200
 O         0.2260829852        2.5198433933        1.8506050562
 O         2.4749929765        3.1609239313       -0.7365852272
 C         2.9455433962        6.1314199016       -1.6663678144
 C         4.4094840924        5.9742198863       -1.2933455030
 C         5.4417317317        6.9001009033       -2.0674420504
 C         5.2642585045        6.6489856574       -3.6563254954
 C         6.1890286024        7.3987314645       -4.6131943675
 O         4.7547792256        5.1505965024       -0.4388845808
 O         4.3327071552        5.9389760935       -4.0099588854
 C         5.1828856068        8.4085283612       -1.8644689039
 C         6.9519182927        6.4666846399       -1.5238697399
 H        -7.0401214105        3.9747652435        3.3335152001
 H        -6.1978784081        2.4557604677        3.2443942954
 H        -7.9311493089        2.4885265084        3.0569320954
 H        -6.2726349095        0.1049333410        6.5375796116
 H        -5.7188883522        0.1636346330        4.7498473668
 H        -5.0302762833        4.2502685545        4.8575733299
 H        -4.7341486192        4.3986914751        6.6501349073
 H        -6.3574449859        4.9088488818        5.7210515456
 H        -7.4367689067        3.3124058767        7.6992712103
 H        -6.9450755762        1.6077019632        7.6830306157
 H        -5.9562619473        2.8030912153        8.3832802170
 H        -3.8130177045       -0.3552570872        7.2846992333
 H        -4.3066867008       -1.6997410869        6.2011664628
 H        -1.4304782735       -1.2567795641        2.3739322727
 H        -0.4005230525       -2.4166436660        2.6771602090
 H        -0.5752788166        0.8183898786        3.9885199545
 H         0.4619044102       -0.3183474739        4.8536854573
 H        -0.4824956373        1.0015507437        5.6983925306
 H        -2.0688269522       -1.8050030297        7.3550860219
 H        -0.3861334191       -1.5607219171        7.2986458669
 H        -1.4341989569       -0.2260492700        7.5060626032
 H        -3.3899594714       -3.0315187754        2.5900328251
 H        -2.1456676809       -4.1318402406        2.9988409782
 H         1.0018662136       -6.3581295245       -0.1751617763
 H        -0.6031229913       -7.1738965518       -0.8086305964
 H        -2.1050900870       -5.9663398217        1.9545295854
 H        -2.5787038456       -6.8358897829        0.3492597638
 H        -3.5807291618       -5.7253829807        1.2793287744
 H        -3.9476823130       -4.4842982414       -0.9428834616
 H        -2.6245690665       -3.9140848559       -1.8389136823
 H        -2.9682568121       -5.6772204878       -1.4005886744
 H         0.9227927578       -5.3062894201       -2.6363088030
 H         1.2230473049       -7.0335879873       -2.5512634988
 H        -1.3024325655       -4.7946200311       -6.6988194190
 H        -2.3091660854       -4.3624853235       -5.2549837874
 H         1.9158483645       -6.2822560967       -4.6718407684
 H         1.2904320851       -7.0663897175       -6.1359491925
 H         1.3805402720       -7.8821310355       -4.5942300975
 H        -1.3138038419       -8.2503957308       -5.1879229779
 H        -2.1693062387       -6.7187990130       -5.6979372593
 H        -0.9518346672       -7.2002872222       -6.5604443362
 H        -2.0252261177       -2.3725060109       -6.6877017441
 H        -0.2413625749       -2.4166154331       -6.3461935457
 H         0.9315074524       -0.3450661824       -5.3674527008
 H         0.6370772317        1.3959872834       -5.3097806666
 H        -1.8739488696        1.2548829554       -5.9869910446
 H        -2.8771308610       -0.0593085243       -6.6557993832
 H        -0.9556087112       -0.0418367147       -6.9563251075
 H        -3.1545984955       -0.5113500308       -3.0389053927
 H        -3.1349404973        0.9993956439       -3.8415875445
 H        -3.9666518919       -0.3651666657       -4.6254388977
 H         2.8293513244        0.8995221949       -4.3163243807
 H         1.7442655348        1.7313137311       -3.2148814166
 H         3.6259904287       -0.2168693157        0.8312217468
 H         3.5431492003        1.4932599100        0.1638521082
 H         2.7024968168       -2.5992597755       -1.1835827886
 H         4.1436264405       -1.8348329502       -0.3457232959
 H         4.1792972974       -2.1671325459       -2.1243188074
 H         4.5578434317        0.3492753421       -2.8953354926
 H         3.5397971786        1.6668690445       -2.1195789338
 H         4.7928419297        0.7833421652       -1.3127504707
 H         3.0390791703        1.5082512110        2.6560990902
 H         1.7364368050        0.4416496905        2.3711126769
 H         0.9383117318        5.6663604462       -1.0611312085
 H         1.7931047133        6.2665714372        0.2360341022
 H         1.0260502790        4.5932939330        3.3231028689
 H         0.3692040240        5.3260110825        1.7987295788
 H         1.7477211330        5.9654164205        2.4879175041
 H         3.9910427283        5.0798899454        2.0731319720
 H         3.5856459478        3.8953581879        3.1569422414
 H         4.2304492406        3.4506419303        1.5492639042
 H         2.7199719956        5.5830723968       -2.6013262092
 H         2.6780725587        7.1894913800       -1.8503960125
 H         6.4222494763        6.8109304079       -5.4871643372
 H         5.6964964237        8.3704175500       -5.0023360416
 H         7.1260213717        7.6322941012       -4.1410061050
 H         5.7320960329        8.8565792118       -2.6999841198
 H         5.5820117566        8.6861836854       -0.8904442656
 H         4.0762707111        8.5384919711       -1.9184382743
 H         6.9229032730        5.8974364399       -0.5834234320
 H         7.4230127966        5.8754188519       -2.3599322597
 H         7.5005774783        7.3185555105       -1.5200350034
 Na       -0.5537547755       -1.6499392691       -1.4582681691
