155

 C        -5.7235184395        2.3431578713        3.9326559778
 C        -6.4937413116        2.8149467317        5.3014580239
 C        -5.7341901932        3.4076257043        6.5694501357
 C        -4.5099497840        2.4356123953        6.9085656876
 C        -4.6577037839        0.9192072649        6.8585075743
 C        -5.2870992219        4.8432502198        6.1818834041
 C        -6.5426897517        3.2771749455        7.8369999222
 O        -7.6880958008        2.6077210437        5.3873733129
 O        -3.3982649941        2.9855611588        6.9780218935
 C        -3.3215053084        0.1698376987        6.9088852266
 C        -3.0222395312       -0.7602431283        5.7307344751
 C        -1.5323160747       -1.1960803422        5.5853540252
 C        -1.2777814861       -2.5594602965        4.8681315930
 C        -1.4803051528       -2.3987422630        3.3929721899
 O        -3.8422448094       -0.9413298573        4.8499663668
 O        -0.9507793708       -3.5573195102        5.4977793476
 C        -0.7473729187       -0.0806942579        4.8892908572
 C        -0.9742563900       -1.4081525551        7.1076051097
 C        -1.3169528093       -3.7579204276        2.6757397853
 C        -1.1394175166       -3.6157830814        1.1319246216
 C        -1.2974052301       -4.7697464813        0.1629705499
 C        -0.2042756014       -4.8653013555       -0.9234140667
 C         0.2817782409       -6.2852641874       -1.5689849330
 C        -1.4014466737       -6.1647128076        0.9004649465
 C        -2.6235819588       -4.4817538406       -0.6589594826
 O        -0.8503691147       -2.4883880601        0.6603850415
 O         0.5029574260       -3.9635055874       -1.3210211813
 C         0.2960428256       -6.0283670359       -3.0991925948
 C        -1.0250900016       -6.4628070041       -3.6833812225
 C        -1.1126572746       -6.3527389531       -5.2195978475
 C        -1.3061034027       -4.7392822012       -5.5509722454
 C        -2.6509100956       -4.0692257310       -5.2348197170
 O        -2.0239369459       -6.5065180959       -2.9835201317
 O        -0.4490457247       -4.1737846100       -6.1082328347
 C         0.1166028860       -6.8781699469       -5.9908804929
 C        -2.2722271085       -7.2749257714       -5.6668857181
 C        -2.6685881748       -2.5960036359       -5.4808827014
 C        -2.3645096936       -1.7846733667       -4.1454163690
 C        -2.6270682572       -0.2096474351       -4.0729120548
 C        -1.5638439070        0.3118230919       -3.0980576109
 C        -0.7117322803        1.4639247789       -3.4087003311
 C        -2.3413918170        0.4566723211       -5.4742735723
 C        -4.0662472778        0.0805066749       -3.6606264445
 O        -1.9491871651       -2.4592843045       -3.1948895017
 O        -1.5982729571       -0.1391288815       -1.9616084262
 C         0.5513252646        1.4859481993       -2.6009184342
 C         1.2372060001        0.1754969403       -2.7206636544
 C         2.6264223067       -0.0226888399       -1.9116313545
 C         2.3098098478        0.0088755264       -0.4567733084
 C         3.2547715550        0.7160157431        0.6049708322
 O         0.7147722975       -0.7134499377       -3.3902353853
 O         1.4822367488       -0.7428051729        0.0256007238
 C         3.1087628173       -1.4283696309       -2.2923375492
 C         3.6670848787        1.0981041789       -2.3788970448
 C         2.2939616501        1.3051671304        1.7215120415
 C         1.5224489550        2.5064283671        1.2186392151
 C         2.0365762100        3.9703982599        1.4458945849
 C         2.4415644065        4.5092737940        0.0212445463
 C         3.0132834247        5.9388783088       -0.1449935623
 C         0.9411887216        4.9604193581        1.9941175433
 C         3.3180857346        3.9659522253        2.3374296775
 O         0.6498943977        2.3702227681        0.3447977765
 O         2.4280767397        3.7145330537       -0.8671963853
 C         3.7628903451        6.1618196438       -1.4688197090
 C         5.0930154526        5.4911697080       -1.6399151114
 C         5.9343802716        6.0381598723       -2.8394617652
 C         5.1305664840        6.0271811453       -4.2850025029
 C         5.1867553923        7.3138060226       -5.2800442937
 O         5.4850040756        4.5822717530       -0.9602533134
 O         4.2087436288        5.2465865709       -4.4911914820
 C         6.4571661583        7.4336332734       -2.2870994957
 C         7.1934500228        5.1720483141       -3.0980759419
 H        -6.5183457816        2.1725477918        3.1689030333
 H        -5.0873584212        3.1091861573        3.5705777398
 H        -5.0996084918        1.4859436735        4.1483371053
 H        -5.4485433016        0.5378469757        7.5488170334
 H        -5.2078494260        0.7652295901        5.8499106936
 H        -4.4480735460        4.9172430255        5.5236111781
 H        -4.9914286938        5.3244051722        7.1370513053
 H        -6.1596076524        5.2948599495        5.7059823042
 H        -7.6289851010        3.3312232523        7.6631419661
 H        -6.2695814193        2.3868280345        8.3618895327
 H        -6.4026502056        4.1001145830        8.3896634407
 H        -2.4669980869        0.9919486046        6.8822810806
 H        -3.2418334089       -0.3296868043        7.8935735775
 H        -2.3966352739       -1.9169181980        3.2605187282
 H        -0.7381160879       -1.8171384007        2.8180448592
 H        -1.1150471222        0.1268262116        3.8907339918
 H         0.2991557351       -0.2537571215        4.8840397804
 H        -0.9766858138        0.8233420788        5.4206828156
 H        -1.6116750343       -2.1756647991        7.5995727377
 H         0.1499000940       -1.6452484785        7.1722673780
 H        -1.1926857101       -0.4496628985        7.5831458291
 H        -2.1915321083       -4.3828835374        2.9128092889
 H        -0.4234652568       -4.2611876051        3.1616097553
 H         1.3129440794       -6.4503810234       -1.0433038136
 H        -0.2901710943       -7.0857430223       -1.2333810546
 H        -0.5184943596       -6.3261867593        1.5623010310
 H        -1.6516796884       -6.9365742556        0.1297947187
 H        -2.1929188405       -6.1007414798        1.5466237176
 H        -3.4160296779       -4.2715882962       -0.0031723408
 H        -2.4743779176       -3.6206719814       -1.3303042159
 H        -2.9144332227       -5.3858562935       -1.2881299979
 H         0.7130820182       -4.9982056887       -3.3443153293
 H         1.0850405324       -6.7057075745       -3.3481881491
 H        -3.3833307160       -4.5085224991       -5.8680581744
 H        -3.0280181174       -4.4782492582       -4.2663022416
 H         0.9787959832       -6.2209548914       -5.8652833837
 H        -0.1920388175       -6.9793633996       -7.0659268007
 H         0.3972194746       -7.8936104909       -5.5906985507
 H        -1.9945091490       -8.2747607285       -5.3346890116
 H        -3.2282132412       -7.0916866105       -5.2046976234
 H        -2.5084536953       -7.3347119466       -6.6676461734
 H        -3.6068129386       -2.3156726536       -5.9446067706
 H        -1.8354034776       -2.2813074804       -6.1542079429
 H        -0.4745112651        1.5597892509       -4.4266592688
 H        -1.2581507145        2.4000815570       -3.1926528789
 H        -2.3509052083        1.5539558683       -5.3217228092
 H        -3.1364674239        0.3560927502       -6.2267287481
 H        -1.4157440769        0.2068246002       -6.1187760887
 H        -4.3361643454       -0.3866011720       -2.7147261376
 H        -4.3165165488        1.1456679491       -3.5362338187
 H        -4.7081381623       -0.0976806612       -4.4917896037
 H         1.3383053239        2.2620522908       -2.8508321517
 H         0.4268209220        1.5775411953       -1.5464185269
 H         3.8881228324       -0.0211231853        1.1596769733
 H         3.9552888447        1.5081056350        0.1511587711
 H         2.4570608201       -2.0766930985       -1.7448247196
 H         4.1531699970       -1.5817733676       -2.0945026405
 H         2.8606776049       -1.5697234695       -3.2903230970
 H         3.6426697972        1.1057690494       -3.5424802266
 H         3.2915498425        2.0450112354       -2.0115549975
 H         4.6823240341        0.8976888925       -2.1436524357
 H         2.8726628675        1.6339796104        2.5617877407
 H         1.5527287081        0.6669495231        2.1702300857
 H         2.0964227337        6.4950587324       -0.0940215654
 H         3.6611401841        6.1603491025        0.7711870479
 H         0.6589141663        4.5785563313        2.9992347025
 H         0.0481391936        5.0637546437        1.3889911836
 H         1.3610589810        5.9817149298        2.1274177079
 H         3.7924822336        4.8790483984        2.2727486735
 H         3.2479210814        3.9506409681        3.4424325481
 H         4.0743926130        3.2446580268        2.0381732384
 H         3.0527912432        5.6308484931       -2.1450723979
 H         3.7777005401        7.2024692319       -1.8548059119
 H         4.2373538622        7.7142494439       -5.4213062483
 H         5.8810185961        8.1611777310       -4.9740893176
 H         5.4830148146        6.9699111572       -6.2601824177
 H         7.1359772851        7.9625403185       -2.9336923182
 H         6.8203476361        7.3118635347       -1.2759760204
 H         5.5847843043        8.1398787038       -2.2428418064
 H         7.7849994174        5.4393492554       -4.0458607243
 H         7.9317763215        5.2052972939       -2.2233876068
 H         6.8753050771        4.1610854570       -3.2097194229
 Na       -0.1108448273       -1.8766866267       -1.4128159222
