155

 C        -5.2981972550        4.1540243906        4.2539732470
 C        -4.9449934022        2.8785538939        5.0028965351
 C        -4.6737336302        2.7762556215        6.5806961710
 C        -3.5738328613        1.6189980804        6.7090373937
 C        -3.9635390006        0.3082313991        7.3175471870
 C        -4.1568565780        4.0709594172        7.2062854120
 C        -6.0300827153        2.4528484881        7.2791546815
 O        -5.0009509925        1.8941318616        4.3358916679
 O        -2.4899657139        1.8137549857        6.1563795880
 C        -2.6634054377       -0.6429500265        7.6520120371
 C        -2.0653732420       -1.0879104931        6.4037884798
 C        -0.4836928970       -1.2336538612        6.2598609207
 C        -0.1971550066       -2.3463225981        5.2027353941
 C        -0.5915463074       -2.1445174220        3.6892237800
 O        -2.7183631387       -1.4345208954        5.4521758897
 O         0.3533014591       -3.3677861173        5.4971856377
 C         0.1207499774        0.1018672317        5.8696859493
 C         0.2693014185       -1.5777702587        7.5803468574
 C        -0.7878789217       -3.4931564898        3.0672956902
 C        -0.8876601788       -3.4038075970        1.6062330564
 C        -1.3596852760       -4.6682765532        0.7706343147
 C        -0.9096395535       -4.7370603893       -0.6684081948
 C        -1.5255799600       -5.7009263562       -1.5691335536
 C        -0.9044656005       -5.9847981210        1.5145013377
 C        -2.9060702864       -4.4186607038        0.9426768563
 O        -0.6300965145       -2.4184461957        1.0075018045
 O        -0.0576757347       -3.9972616688       -1.0903402262
 C        -1.0402439435       -5.6384498546       -2.9955002702
 C        -1.9710879116       -6.1898611618       -4.1343782114
 C        -1.8793633147       -5.5673659975       -5.5646848159
 C        -2.1723125956       -4.0452838359       -5.4784885698
 C        -3.4020862014       -3.6334621290       -4.6275726013
 O        -2.8499914487       -6.9550513755       -3.8615859183
 O        -1.5289816158       -3.2652778671       -6.0409279076
 C        -0.4321203318       -5.7029233551       -6.1589514229
 C        -2.8971477165       -6.2590784252       -6.4667882778
 C        -3.5916039463       -2.1125631805       -4.6812123203
 C        -2.9654905460       -1.3471831527       -3.4545612484
 C        -3.6418416450       -0.0554467624       -2.8921503832
 C        -2.3206189730        0.8740239222       -2.6898560888
 C        -1.8026973161        1.7862280427       -3.7985801186
 C        -4.7191583101        0.4886300235       -4.0189867470
 C        -4.2930095759       -0.3801141874       -1.5153457563
 O        -2.1060041153       -1.9152189121       -2.8078743453
 O        -1.6713620413        0.7075064890       -1.6674322561
 C        -0.3540005233        2.1163060572       -3.4389253572
 C         0.4859877906        0.8309037792       -3.4906255345
 C         1.9940553592        0.8555796061       -3.0484518311
 C         2.1001850001        0.7206056938       -1.4854787491
 C         3.2571295193        1.3829695437       -0.6267368925
 O        -0.0611818060       -0.2355642165       -3.7286049479
 O         1.2117063644        0.1508116670       -0.8584869416
 C         2.6792548529       -0.6054226386       -3.4489459181
 C         2.8673043403        1.9190225768       -3.5848560684
 C         2.8876654909        1.4536557592        0.8098900653
 C         1.8912232401        2.4966453964        1.3120790930
 C         2.3841827266        3.9804599848        1.3762167573
 C         2.7402250601        4.5030246926        0.0146773227
 C         4.0096738155        5.3865338582       -0.1274725266
 C         1.1103525811        4.8939355505        1.6671042363
 C         3.5337286458        4.1094512705        2.4230925342
 O         0.8592443518        2.1617454690        1.7406049160
 O         2.0304325788        4.2930762596       -0.9285017455
 C         4.3385959473        5.5742087501       -1.6672747914
 C         5.2146898283        4.3991828188       -2.2214133820
 C         5.9825128387        4.6589986979       -3.6407960822
 C         4.9522043778        4.7830963400       -4.8145379025
 C         5.2695173109        4.4204138072       -6.2386907729
 O         5.2210611915        3.3190820336       -1.7057842324
 O         3.8215690139        5.2060987146       -4.5318447667
 C         6.9296548400        5.7882856229       -3.4414476500
 C         6.8667202562        3.3384048209       -3.8242377432
 H        -4.8355528894        4.1706923538        3.2072001640
 H        -6.3305570397        4.0607761775        4.0944276423
 H        -5.1180703924        5.1201855941        4.7908713912
 H        -4.5704274331        0.3695255123        8.2972132306
 H        -4.3758409180       -0.3418187303        6.5040919579
 H        -3.4220231893        4.5828548419        6.6802423718
 H        -3.8070177933        3.8222400072        8.2081277115
 H        -4.8777605284        4.9080814849        7.4440709769
 H        -6.6558660356        3.2621548464        6.9811340668
 H        -6.5398835246        1.5203774758        7.0250532224
 H        -6.0378578020        2.4974548472        8.4003395730
 H        -2.0039909395        0.0076763828        8.2354162951
 H        -3.0778087650       -1.5281783363        8.2725162495
 H        -1.6429778154       -1.6563814300        3.6397171166
 H         0.2430458182       -1.6912596636        3.1426807924
 H        -0.2310434431        0.3382974575        4.9309761699
 H         1.1941251037        0.0216118971        5.6682896180
 H        -0.1931531592        0.8264653705        6.5589422031
 H        -0.2349976441       -2.3995705993        8.0888608293
 H         1.2385656263       -1.9520038021        7.3779103290
 H         0.4916735572       -0.7125297623        8.1759613798
 H        -1.8021858418       -3.8971324816        3.3482421149
 H        -0.1312780697       -4.1426271843        3.6670918807
 H        -1.4351307036       -6.6530302578       -1.1216739147
 H        -2.6217769713       -5.5964800591       -1.5836552966
 H         0.1201063520       -5.9050216919        1.8310799711
 H        -1.0553043384       -6.8111804423        0.8224904673
 H        -1.2914971176       -6.2701574711        2.4824507177
 H        -3.2572586876       -4.5770932072        2.0049012200
 H        -3.2162700212       -3.4462818286        0.5544763143
 H        -3.3473686317       -5.2751096616        0.4700210415
 H        -0.7948827620       -4.5780043820       -3.2897850186
 H        -0.0246232025       -6.0564151200       -3.1511109039
 H        -4.3104856424       -4.0873188570       -5.0260554964
 H        -3.3298158237       -3.9816705350       -3.5893817124
 H         0.4340822333       -5.2743518155       -5.6180334827
 H        -0.4015920032       -5.3571167907       -7.1330968933
 H        -0.3175230412       -6.7568803082       -6.2265994367
 H        -2.4898665817       -7.2278673419       -6.7565858319
 H        -3.8672147819       -6.3517021123       -5.9742586529
 H        -3.1261740723       -5.5620224278       -7.2999765230
 H        -4.6374425581       -1.8733068423       -4.8047099009
 H        -3.1003016842       -1.6938447742       -5.5800686394
 H        -1.7376197078        1.1665463024       -4.7339374598
 H        -2.4360817797        2.5965102891       -4.0384804060
 H        -5.1272591682        1.4031723337       -3.5842259242
 H        -5.5105716332       -0.1959034511       -3.9808247263
 H        -4.1712234579        0.8310801569       -4.9067806795
 H        -3.5535296052       -0.3457613790       -0.7200323970
 H        -4.7725652949        0.5319105748       -1.2808201169
 H        -4.9828306063       -1.1964962248       -1.6585839691
 H        -0.0310635649        2.8376682937       -4.1324709399
 H        -0.2698313308        2.5917115765       -2.4281933293
 H         4.1398914436        0.7876293507       -0.7885296341
 H         3.5975699993        2.3096520259       -1.0401615239
 H         2.6788843635       -0.8078970950       -4.5398939083
 H         2.1829218438       -1.4364152609       -2.9534741844
 H         3.7491931273       -0.7209134312       -3.0587439904
 H         2.6791726726        2.2176184931       -4.6527840512
 H         2.6644604934        2.8108452513       -2.9751575678
 H         3.9307260493        1.6430894327       -3.6083763432
 H         3.8233931719        1.5997288537        1.3038020977
 H         2.5428671365        0.4765664887        0.9521942339
 H         3.5674091873        6.2818493786        0.2778279232
 H         4.8747300155        4.9270015443        0.4554071339
 H         0.6846278665        4.5448109588        2.5898769094
 H         0.4631883745        4.9096420956        0.7673580289
 H         1.4463535116        5.8915355471        1.8746256153
 H         3.6579771036        5.1786790999        2.7132952702
 H         3.0324342147        3.5439814755        3.1810077409
 H         4.4746280098        3.5207947544        2.2389338294
 H         3.3299207758        5.4952157134       -2.1822021659
 H         4.8147688548        6.5203926352       -1.8789364253
 H         6.2585768104        3.9499181193       -6.2225777440
 H         4.6679014264        3.6630907555       -6.6464093185
 H         5.1691226156        5.2603085253       -6.9461521938
 H         7.4416615613        6.0800826859       -4.3707782901
 H         7.7413737527        5.6404958163       -2.6992399693
 H         6.4496899095        6.6837937388       -3.0957772575
 H         7.9064237142        3.5946096241       -4.1729220358
 H         6.8258602233        2.5904578833       -2.9066150278
 H         6.5153210065        2.7145793647       -4.6112215480
 Na       -0.3795893282       -1.4482479553       -1.0221194156
