155

 C        -5.1718822523        4.2888499473        4.2945211423
 C        -4.8960997549        2.9339111339        4.9460188399
 C        -4.6184503211        2.8090489774        6.5183734677
 C        -3.3795416402        1.6911755579        6.7295941292
 C        -3.6431658910        0.2680445132        7.1927837860
 C        -4.2326147176        4.1435703159        7.2331760884
 C        -5.8918430328        2.2864259421        7.2294842063
 O        -4.7658401886        1.9563348304        4.2826725379
 O        -2.1987401038        2.1276031441        6.8044927862
 C        -2.3852647523       -0.5971241845        7.5173554687
 C        -1.8794270562       -1.3350933574        6.3201107792
 C        -0.2874508951       -1.3442601074        6.2964475135
 C         0.3788224044       -2.3171759199        5.2298493650
 C        -0.0491493964       -2.1956206565        3.7812491720
 O        -2.5978087002       -1.9324993951        5.5211672415
 O         1.1768341152       -3.1214019951        5.6524364667
 C         0.2800995735        0.1290090190        5.9677380759
 C         0.2111873443       -1.6648540832        7.7552578282
 C        -0.2424084839       -3.4367449112        2.9273871717
 C        -0.6570073309       -3.2346359099        1.5418893867
 C        -1.3205444173       -4.3814308861        0.7825770565
 C        -0.8418112961       -4.4228788778       -0.7494018849
 C        -1.5204862026       -5.3813573691       -1.7844849263
 C        -0.9204357785       -5.8084901392        1.2845974276
 C        -2.9145459780       -4.1491475671        0.7725955146
 O        -0.6428459583       -2.1659837045        0.9864946276
 O         0.0676560298       -3.7301870380       -1.0744443066
 C        -0.9564860164       -5.4516997840       -3.1704527783
 C        -2.0114964725       -5.9826111687       -4.1700128946
 C        -1.9212809176       -5.3208618119       -5.6422792144
 C        -2.2232392457       -3.7541542546       -5.4550746097
 C        -3.7130588520       -3.3545287399       -4.9873449190
 O        -2.7449860027       -6.9200750066       -3.7583312834
 O        -1.4846354660       -2.8367841565       -5.7250606494
 C        -0.5785921001       -5.5759423401       -6.2759773766
 C        -3.1646427992       -6.0853913258       -6.5084872220
 C        -3.8937972784       -1.8767478859       -4.6071642860
 C        -3.3579157103       -1.4474740866       -3.1276264483
 C        -3.6646868421        0.0435659014       -2.5318371326
 C        -2.3586101487        0.9846769237       -2.3572362463
 C        -2.0661836044        1.8404712095       -3.6100219426
 C        -4.7932763724        0.7640189692       -3.3722096354
 C        -4.1733735485       -0.1834455014       -1.0507285629
 O        -2.8989266565       -2.3082489774       -2.3901863433
 O        -1.6976086157        1.2194106913       -1.3372861390
 C        -0.5561116594        1.9653349630       -3.8965534481
 C         0.1009028959        0.6990623996       -3.4427730927
 C         1.6631845406        0.6447753913       -3.0981862598
 C         1.8493897781        0.3566414532       -1.4907588595
 C         3.0583244426        0.9806248433       -0.6734385246
 O        -0.4734925052       -0.4045457019       -3.4001141791
 O         1.1163234023       -0.4259299781       -0.9437027659
 C         2.3984428158       -0.5431898386       -3.7035296994
 C         2.4037221286        1.9622220939       -3.4561848077
 C         2.7084352765        1.1565100436        0.8505699590
 C         1.7610956766        2.4804319750        1.2668303815
 C         2.3036679086        3.9173373347        1.2829775932
 C         2.7331926206        4.3583443913       -0.0947512741
 C         4.0555825221        5.1838849409       -0.2857627928
 C         1.1078114920        4.7459250370        1.7393816055
 C         3.5743970319        4.0402235021        2.3196626104
 O         0.6994979278        2.2075950354        1.7464062467
 O         2.1292111154        3.9279516345       -1.0457258000
 C         4.5702199616        5.3295579433       -1.7547314392
 C         5.3454633686        4.1591391442       -2.3245614936
 C         6.0904237691        4.4007340357       -3.8349320278
 C         4.9568840660        4.5403549049       -5.0017473728
 C         5.0528257387        3.9018063491       -6.3563784265
 O         5.6342232572        3.1318357258       -1.7228386258
 O         3.9663985629        5.1826849920       -4.7032238315
 C         6.8862822883        5.7756363906       -3.8226693549
 C         7.0654169710        3.2099254673       -4.0817002307
 H        -4.7293774360        4.2192482972        3.2660159783
 H        -6.2399344024        4.5373027216        4.1866044159
 H        -4.8696563387        5.1068195467        5.0150903181
 H        -4.2430661646        0.3615082635        8.1927095312
 H        -4.2444608086       -0.3820078409        6.5077464316
 H        -3.2931406279        4.5118572779        7.0728790321
 H        -4.3225525150        4.0016306219        8.3069084754
 H        -4.8954090005        5.0184171722        7.0278897925
 H        -6.7274549901        2.9239823270        6.9119416251
 H        -6.2444625234        1.3232284122        6.7295255779
 H        -5.7806078439        2.1152258003        8.2920256144
 H        -1.7780705393        0.1264790407        8.0262060156
 H        -2.6158330505       -1.3821899941        8.3589957812
 H        -0.9915379145       -1.5587770591        3.6520696944
 H         0.8263361138       -1.6060822096        3.3806452911
 H        -0.0067654216        0.6229302288        5.0026630428
 H         1.4124868376        0.1046753379        5.9645825430
 H         0.0795238830        0.6956127151        6.8632904641
 H         0.1983613205       -2.6920469159        7.9959556153
 H         1.2463942344       -1.4156239333        7.8006922689
 H        -0.2285930148       -1.0637618085        8.4850257275
 H        -1.0289665378       -4.0039606875        3.4922602906
 H         0.6576228182       -4.1204896206        2.9010408818
 H        -1.6110571988       -6.2849780347       -1.2536962505
 H        -2.6027813099       -5.1334063616       -1.9559307245
 H         0.1458624811       -6.0921470733        1.3148427532
 H        -1.3567062911       -6.6270425739        0.6619098879
 H        -1.2885132047       -5.9727124585        2.2577370270
 H        -3.0951129203       -3.8328794944        1.8025283552
 H        -3.2794424617       -3.2863133041        0.2294301788
 H        -3.3643494762       -5.1257330015        0.5549143497
 H        -0.5536353825       -4.4647620452       -3.4701308864
 H        -0.0958957517       -6.1317522657       -3.0013770393
 H        -4.4278149099       -3.5957117516       -5.7764141455
 H        -4.0489010283       -3.9854700916       -4.1673634997
 H         0.2545846360       -5.1750931341       -5.6988806350
 H        -0.5001313731       -5.1243701557       -7.2283442269
 H        -0.4608132162       -6.6309757718       -6.3781110046
 H        -3.0504690691       -7.1967999503       -6.3439335911
 H        -4.1488568465       -5.7880980410       -5.9975383739
 H        -3.1880049550       -5.7305425281       -7.5280978281
 H        -4.9426306760       -1.6371653298       -4.6421895852
 H        -3.4936174847       -1.2462210737       -5.4033130150
 H        -2.5232318072        1.4508291200       -4.5356282234
 H        -2.4389657513        2.8046563312       -3.4602235745
 H        -4.7789559769        1.8109527019       -3.3918175005
 H        -5.6935278860        0.3498525862       -3.0690578875
 H        -4.4609062744        0.4507678014       -4.3678140372
 H        -3.5029269072       -0.9510792513       -0.5572116846
 H        -4.0897582671        0.7984895417       -0.5385282144
 H        -5.1405761016       -0.6264432929       -1.1339627891
 H        -0.3267449634        2.0387985710       -4.8968820758
 H        -0.1104395969        2.9011890003       -3.4892862359
 H         3.8818213156        0.4161417272       -0.8865175628
 H         3.3241770472        2.0081662685       -1.1160163315
 H         2.5080328713       -0.5569366373       -4.7788688764
 H         1.9179258172       -1.5110881072       -3.5484592238
 H         3.3908251153       -0.6310283264       -3.2052518950
 H         2.3832725318        2.2134660101       -4.5675266359
 H         2.1008904006        2.8770903907       -2.9986479585
 H         3.3670967080        1.8443386958       -3.1253528893
 H         3.6572951227        1.1041920721        1.3691427628
 H         2.1972066867        0.2898151272        1.1409055505
 H         3.7062536195        6.1760691650        0.0232563121
 H         4.8759232171        4.7937026702        0.3835319813
 H         0.7743187486        4.6775527349        2.7696681728
 H         0.3255816128        4.4126571452        1.0468101380
 H         1.3539619578        5.7656198041        1.5169784208
 H         3.9218206966        5.0515596729        2.1440164819
 H         3.1684967207        4.0311805285        3.3655132999
 H         4.3689041795        3.2468550364        2.0431053608
 H         3.7982268958        5.5188092494       -2.5452130802
 H         5.2306565683        6.1665197432       -1.7227435208
 H         5.3911655381        4.7074851824       -6.9933164217
 H         5.8159721599        3.1532782925       -6.4434085968
 H         4.0723725800        3.5543982914       -6.7981324623
 H         7.7167706679        5.7561424491       -4.5431744574
 H         7.4976057846        5.7653417508       -2.8923838309
 H         6.3882734615        6.7273507257       -3.9497979220
 H         7.4785279399        3.0870947236       -5.0959717078
 H         7.9595198316        3.3976345438       -3.4101929399
 H         6.6303472853        2.3917532734       -3.5532219283
 Na       -0.8680541018       -1.4978110074       -1.3458393301
