155

 C        -4.3866842730        4.1796855967        4.2248395090
 C        -4.4682502756        2.7987883662        5.0106485084
 C        -4.4174347437        2.6760645039        6.5782717601
 C        -3.0693160217        1.9058783973        7.1541650825
 C        -2.5712368876        0.6753316530        6.3290953444
 C        -4.4340007767        4.0236686340        7.3232697179
 C        -5.7095001391        1.8634321776        6.9326642741
 O        -4.4789583230        1.7662810125        4.3323830607
 O        -2.5508179728        2.1201811137        8.1901474577
 C        -1.9741686706       -0.4769107316        7.1684234639
 C        -1.2287315095       -1.5214420101        6.2667007255
 C         0.3634389325       -1.3705662581        6.2275522937
 C         1.0146140986       -2.1399229722        5.0138032869
 C         0.3946375126       -1.7632274668        3.5718268432
 O        -1.8004807587       -2.4884101261        5.7652900403
 O         1.8246069703       -3.0499622853        5.1943751451
 C         0.6945125968        0.1600860391        6.1134303315
 C         0.9515871392       -1.7815962587        7.5516370330
 C        -0.0200669309       -3.0199383281        2.8520977200
 C        -0.7525974600       -2.9241098277        1.6208191133
 C        -1.2177521556       -4.2064321684        0.8860419163
 C        -0.8156246997       -4.1476483549       -0.6874926059
 C        -1.6306528243       -4.9608696394       -1.6423716511
 C        -0.5586115223       -5.4441894670        1.3990530442
 C        -2.7656662680       -4.1828607471        0.9780734293
 O        -1.0771101672       -1.8043379465        1.1353319715
 O         0.0827917144       -3.4142874508       -1.0782608006
 C        -1.1440704722       -4.5660290980       -3.0724136435
 C        -2.1083669114       -5.2363643391       -4.1921296445
 C        -2.2391678235       -4.5609855806       -5.6272190234
 C        -2.8911106887       -3.0632569827       -5.4115839136
 C        -4.3352951035       -2.8682132377       -4.9317362441
 O        -2.8754256972       -6.0553376527       -3.8464815949
 O        -2.0547707790       -2.1854694781       -5.5497820531
 C        -0.8761157121       -4.5245929169       -6.2609098701
 C        -3.2501150477       -5.4883883546       -6.4427112977
 C        -4.6513698141       -1.4976006605       -4.1639263870
 C        -3.9827588323       -1.3609057323       -2.8090531022
 C        -4.1950905554        0.0616208576       -2.0395504071
 C        -2.8314476102        0.8661311163       -1.8883509954
 C        -2.2876067594        1.3714152394       -3.1369159991
 C        -5.2092408636        0.9786654786       -2.6933583874
 C        -4.7837822825       -0.4274263832       -0.6103323059
 O        -3.2778141900       -2.2608103732       -2.3605694312
 O        -2.3736137975        1.1298605102       -0.7818800610
 C        -0.7968331762        1.7152428044       -3.1526700548
 C        -0.0346309487        0.3558992650       -3.2202419646
 C         1.4640416463        0.3662643574       -3.0383551420
 C         1.7159978636        0.2801765940       -1.5172751857
 C         3.1326301646        0.7717496064       -1.0114682956
 O        -0.6264905457       -0.7060972859       -3.4853902088
 O         1.0007145481       -0.3045883874       -0.7806800754
 C         2.0508880114       -0.9008522175       -3.6316001893
 C         2.1770854009        1.5729226702       -3.7590236376
 C         3.0263605018        1.0711700982        0.4868811700
 C         1.9845501960        2.1733104692        0.7784164885
 C         2.5002329771        3.5935116471        1.0979805241
 C         3.0721121770        4.0840605834       -0.2350598743
 C         4.3989332481        4.7573479956       -0.4416965945
 C         1.3186126257        4.4709690138        1.3544110281
 C         3.5913805026        3.6891164728        2.2425542911
 O         0.8002247212        1.9014872460        0.7445645204
 O         2.3389986201        3.8167395734       -1.2060277575
 C         4.7654928190        4.9329534493       -1.9058569883
 C         5.3608667293        3.7876860530       -2.7607546872
 C         6.0591349473        4.0281682665       -4.1560110509
 C         4.8367513157        3.9313987807       -5.1532386232
 C         5.0887162974        3.0200743310       -6.4034392927
 O         5.2620995487        2.6398296051       -2.3013061263
 O         3.8029184309        4.4817447104       -4.9638302635
 C         6.5907839806        5.4996096406       -4.2179094262
 C         7.3126164114        3.1038770993       -4.3276524008
 H        -5.1439764919        4.2012368369        3.4855142072
 H        -4.5980017300        5.0430451442        4.9059086474
 H        -3.4866621908        4.2554092206        3.7057670375
 H        -3.2810132081        0.3557032265        5.5862980859
 H        -1.8442571040        0.9140661457        5.6497001018
 H        -3.7020974237        4.7771746000        6.8391098218
 H        -4.1006628981        3.8579541634        8.3744746083
 H        -5.4204651483        4.4389187833        7.4174450690
 H        -6.5592412118        2.5346384776        6.7372173600
 H        -5.6679248022        1.0266006397        6.2548920908
 H        -5.7298178884        1.5536248262        7.9131340364
 H        -1.3839923580       -0.1424380913        7.9616158896
 H        -2.8169486081       -1.0163213374        7.7256185488
 H        -0.3137252570       -1.0300089058        3.6523291079
 H         1.1876909515       -1.1771799413        3.1337528904
 H         0.4450750809        0.7275691120        5.1663265915
 H         1.7071641095        0.3724836732        6.3188635493
 H         0.0636567137        0.6071899054        6.8614436272
 H         1.1370712366       -0.9621239664        8.2758630520
 H         0.3531658455       -2.6392466433        8.0336893445
 H         1.9746448554       -2.2908271843        7.4196709295
 H        -0.8122721092       -3.3914563580        3.4679630717
 H         0.7715617830       -3.7811299213        2.8831294109
 H        -1.4502436390       -6.0051553758       -1.5148178612
 H        -2.7473273128       -4.7308732904       -1.4621504501
 H         0.5471602030       -5.4996407921        1.1619671707
 H        -1.0827717387       -6.3838531604        1.0157782283
 H        -0.6872160662       -5.4961981978        2.4951535935
 H        -2.8456115183       -4.5935681513        1.9081760446
 H        -3.1472710571       -3.1686235609        0.8449643119
 H        -3.3449592994       -4.9073452154        0.3665578120
 H        -1.2505868848       -3.5345615935       -2.9995996657
 H        -0.0842482207       -4.7949454757       -3.2757003710
 H        -5.0149067987       -2.8192043230       -5.8154497425
 H        -4.6102781722       -3.7462198377       -4.3391532104
 H        -0.2881643812       -3.8397651210       -5.7090858407
 H        -1.0205266102       -4.0275128432       -7.2917968357
 H        -0.3109314170       -5.4903003848       -6.2790922331
 H        -2.7251403604       -6.4169676872       -6.5843460386
 H        -4.0737638424       -5.6599490790       -5.7923550960
 H        -3.4259526360       -5.1548216901       -7.4186112989
 H        -5.7457080707       -1.3856901196       -4.1261314668
 H        -4.3390754491       -0.6648733135       -4.8508072184
 H        -2.3843298547        0.5840538490       -3.9682767143
 H        -2.7828836640        2.2719919050       -3.4647575470
 H        -5.2576046942        1.9192714340       -2.1419988784
 H        -6.1973542867        0.5290708874       -2.9710936942
 H        -4.7934013223        1.1724637736       -3.7440111149
 H        -4.2809560661       -1.3439437273       -0.2833867873
 H        -4.7815296580        0.4462350616        0.1116608221
 H        -5.8359492148       -0.5707505178       -0.7280587509
 H        -0.6774793814        2.2797327386       -4.0323657855
 H        -0.4431372811        2.4451699415       -2.3352690742
 H         3.9172303751        0.1624619639       -1.2681541837
 H         3.2012808161        1.7938317960       -1.4481572429
 H         2.2378222680       -0.9565461040       -4.6735382590
 H         1.5342699759       -1.8324657820       -3.3160964343
 H         3.0708455921       -0.9862106918       -3.3219518280
 H         2.0548349246        1.7088105980       -4.8455801286
 H         1.9619925919        2.5123695748       -3.2698172582
 H         3.2537494711        1.4871901759       -3.7212684041
 H         4.0259046660        1.4182410564        0.8689340156
 H         2.8396515714        0.1394177510        1.1357931232
 H         4.3633807607        5.6732796313        0.1309076944
 H         5.1279341658        4.1586702478        0.0726838892
 H         0.9363472208        4.4004854086        2.3868210286
 H         0.5614456902        4.1285931714        0.6537830645
 H         1.4760782844        5.5197234477        0.9800508507
 H         3.8306251641        4.7081170841        2.2946578245
 H         3.3755176516        3.2504780641        3.2263956098
 H         4.4341905059        3.1801305192        1.8613228899
 H         3.8871227502        5.1904832471       -2.5660939765
 H         5.3674799870        5.7982046369       -1.9485806259
 H         4.2419605767        2.4258415854       -6.5591095561
 H         5.2955474442        3.7154857737       -7.2426375349
 H         5.9494754518        2.3248431842       -6.3897292935
 H         7.0738027952        5.5348943385       -5.1799137255
 H         7.3369786863        5.6882316542       -3.4523217921
 H         5.8364881311        6.3006247589       -4.1062080927
 H         7.4195634544        2.5060304561       -5.1964195063
 H         8.0894496812        3.7083779179       -4.1520269034
 H         7.1910686435        2.4230179372       -3.4691280734
 Na       -1.1855861567       -1.3662444643       -1.0392032774
