155

 C        -3.7090936246        4.0714088423        4.5051951191
 C        -4.1565723218        2.6822380063        5.0863201305
 C        -4.3386698812        2.5155279503        6.5831005663
 C        -3.0359101888        1.7183611184        7.1947109580
 C        -2.3989408021        0.7365433596        6.2785029069
 C        -4.6273121678        3.8114082502        7.3473792066
 C        -5.4946145030        1.5173751494        6.9402562765
 O        -4.4281880311        1.7592395897        4.3033625656
 O        -2.7026657691        1.9554313567        8.3034202969
 C        -1.6615760038       -0.3132177696        7.0386624162
 C        -0.8540071982       -1.3104101397        6.2110838658
 C         0.6903356573       -1.2170389427        6.1711771113
 C         1.1895072023       -2.0314615577        4.9706725260
 C         0.3495034168       -1.9446749588        3.5857202654
 O        -1.3931343270       -2.2699454213        5.7246385000
 O         2.1771748903       -2.7386165224        4.9610206793
 C         1.2021453540        0.3022812458        6.0574427897
 C         1.1398266163       -1.7710614101        7.6105778534
 C        -0.2640683038       -3.2378495245        3.1734821285
 C        -0.8122636805       -3.0821112501        1.7951484877
 C        -1.1586094336       -4.3569735098        0.8426139348
 C        -0.8599276537       -4.1252431726       -0.6019029061
 C        -1.5467390895       -4.9550745438       -1.6232035582
 C        -0.4250893243       -5.6561415383        1.4091121290
 C        -2.7817886054       -4.4637824174        1.0373542626
 O        -1.0268463403       -1.9900731347        1.3168290312
 O        -0.0368328342       -3.3024527081       -0.9181666793
 C        -1.2756857827       -4.4412551668       -3.0539238771
 C        -2.3723728850       -4.8714337429       -4.0179137781
 C        -2.4106026172       -4.1381082417       -5.4367673197
 C        -3.2406203079       -2.8285280896       -5.3277438328
 C        -4.4953585472       -3.0242753781       -4.4822690928
 O        -3.1483725768       -5.6971730791       -3.7317615196
 O        -3.0989030876       -1.8343596732       -5.9955725576
 C        -0.9385123723       -3.8069628925       -6.0040521464
 C        -3.0759134695       -5.0412085203       -6.4667230265
 C        -5.0471781401       -1.6592753759       -3.9065483200
 C        -4.0490058891       -1.0517408338       -2.9125436773
 C        -4.4460248850        0.1704557992       -1.9167406028
 C        -2.9821127429        0.9590395697       -1.8869278175
 C        -2.3640048808        1.9284103359       -2.9111382106
 C        -5.5743034035        0.9883887811       -2.6393113484
 C        -4.8415166065       -0.3870580447       -0.5809401834
 O        -3.0990766591       -1.7083119818       -2.6088814160
 O        -2.3137550478        0.8252605842       -0.8773347799
 C        -0.8130903515        1.7928842189       -2.9911853019
 C        -0.1689965522        0.4106400252       -3.2197356502
 C         1.2982680537        0.1657050472       -3.1299064399
 C         1.6704065164       -0.0164145440       -1.5912679700
 C         3.1086511443        0.4621216942       -1.0979276691
 O        -0.8987276267       -0.5499378930       -3.3956053425
 O         0.9179005570       -0.3954719887       -0.7457330212
 C         1.7046921313       -1.1630776989       -3.7248758216
 C         2.0670198313        1.3628064220       -3.7856246706
 C         3.1067912670        0.9587389103        0.4448144848
 C         2.0596178930        2.0531713817        0.8126143617
 C         2.6280810194        3.5468628139        0.9805094530
 C         3.1661122607        4.0025249132       -0.4555640219
 C         4.4895129540        4.7246649001       -0.5772309025
 C         1.3521879645        4.3928136290        1.2924270354
 C         3.7735605773        3.7511390824        2.0127984766
 O         0.8910901970        1.8717599215        1.0112862990
 O         2.4523686947        3.8970078987       -1.4185350843
 C         5.0498869393        4.9426192538       -1.9682541718
 C         5.5002137049        3.7247480844       -2.8249088405
 C         5.9719847422        3.9397827003       -4.3330159253
 C         4.7866010367        3.5706121344       -5.3240061718
 C         5.0997085062        2.6753330172       -6.5082609708
 O         5.2882891066        2.6367403026       -2.3082388904
 O         3.6771609211        3.9941514799       -5.2042634972
 C         6.5843152074        5.3438285551       -4.5506914840
 C         7.0809264381        2.8703070282       -4.5330594941
 H        -3.5868496628        3.9478359272        3.4297772405
 H        -4.6109383086        4.6388235170        4.5707101653
 H        -2.8396025725        4.4807974138        4.8922031797
 H        -3.1011383937        0.3819347812        5.5525374953
 H        -1.7557697957        1.3093253447        5.6897660446
 H        -3.7579324595        4.5663936414        7.2456172516
 H        -4.9601124794        3.5173488648        8.3410505237
 H        -5.4650960313        4.3052953550        6.9164350687
 H        -6.4400190083        1.9407671975        6.6007475806
 H        -5.3400178338        0.5696986145        6.5571330149
 H        -5.4029644482        1.4547107256        8.0035821009
 H        -0.9608368053        0.2151667554        7.6424784456
 H        -2.3944438708       -0.8683178346        7.6334064751
 H        -0.3693737380       -1.2109571210        3.6261075113
 H         1.1203732630       -1.6537036871        2.8499286566
 H         0.7324735871        0.8090494564        5.2529914150
 H         2.1835721925        0.3101569291        5.7726467111
 H         1.1079136504        0.7931035335        7.0160069248
 H         2.1803262886       -1.4957288327        7.7254187580
 H         0.7073392005       -1.2424974508        8.4480328798
 H         0.9118081452       -2.8196731871        7.7610811547
 H        -1.0437633017       -3.6810303739        3.7578809172
 H         0.5173249329       -4.0230822102        3.1772511554
 H        -1.1248717396       -5.9451925627       -1.5715339283
 H        -2.6639534477       -5.0382375128       -1.4238212642
 H         0.6441732138       -5.5351087231        1.5930398988
 H        -0.7569113421       -6.3868945783        0.6908109433
 H        -0.7444568996       -5.9376066454        2.4833302685
 H        -3.0245058034       -4.3159458380        2.0534803506
 H        -3.1682773932       -3.5893490637        0.4620981690
 H        -3.1670289234       -5.4394968125        0.6519453756
 H        -1.2707790412       -3.4087669238       -3.0356933851
 H        -0.2707992630       -4.6982984377       -3.4505202471
 H        -5.1384699128       -3.4749502079       -5.2726335337
 H        -4.3695646261       -3.6840145799       -3.6491122296
 H        -0.4112945623       -3.2125445240       -5.3256816796
 H        -1.1925079675       -3.1882406902       -6.8696170868
 H        -0.2990145415       -4.6381003426       -6.1970929252
 H        -2.4140487552       -5.8950130993       -6.4546344062
 H        -3.9827288468       -5.3734877878       -6.0496746253
 H        -3.2018195183       -4.5788384091       -7.4973094033
 H        -5.9545038015       -1.8046495723       -3.3040100357
 H        -5.2911909950       -1.0055620535       -4.7665966321
 H        -2.7684212466        1.9221246291       -3.9758345240
 H        -2.6171752101        2.8982669059       -2.5152274542
 H        -5.7995422769        2.0054601206       -2.3162026961
 H        -6.5714157521        0.5020017480       -2.3695977226
 H        -5.4585289726        1.0861475231       -3.7289870808
 H        -3.9603421754       -0.8476253516       -0.2120931274
 H        -5.0562170170        0.3582376024        0.1924781574
 H        -5.6988628670       -1.0075548568       -0.7810566301
 H        -0.4331195675        2.4698142645       -3.7477460177
 H        -0.4620336458        2.2086453672       -1.9736760318
 H         3.7755400549       -0.3688787130       -1.2319472921
 H         3.4723901981        1.2856294181       -1.6546922132
 H         1.2762129197       -1.2612825275       -4.7520217578
 H         1.4516263357       -2.1463251930       -3.2105487606
 H         2.7845536026       -1.2513550350       -3.8001639575
 H         1.5354182802        1.6635568136       -4.6506215771
 H         2.1260309274        2.3180632663       -3.1582232333
 H         3.1187197154        1.1485592041       -4.1898738240
 H         4.0974078333        1.4369723664        0.6216842804
 H         2.9122773243        0.1616426385        1.2623856354
 H         4.4218293270        5.7157490950       -0.1171182940
 H         5.0980334136        4.1547029315        0.0891124797
 H         0.8548354912        3.8054531443        2.0458897843
 H         0.7724701209        4.7237622680        0.4742839207
 H         1.5803922423        5.2983896537        1.8813018510
 H         4.0668623901        4.8105225099        1.8870121186
 H         3.4827657860        3.5479660802        3.0552024297
 H         4.5584458013        3.0644261564        1.8963221467
 H         4.3126438877        5.5787187947       -2.5702667508
 H         5.8555460258        5.6439191837       -1.8864245057
 H         5.2853889326        1.6953233847       -6.1091142262
 H         4.1646177555        2.6742592481       -7.1011948388
 H         5.9242340968        2.9157423093       -7.1325571529
 H         7.1038073490        5.2815802193       -5.5018200543
 H         7.3622704514        5.5354161331       -3.7984042726
 H         5.7968192432        6.1383350992       -4.5334684465
 H         7.8332291869        3.4227301692       -5.0720462433
 H         7.4435606354        2.5865340399       -3.5445108446
 H         6.8100452695        2.0134517147       -5.1889606850
 Na       -1.1042469839       -1.2263156229       -0.9155976524
