155

 C         7.7223895025       -0.9251980911        6.3862606100
 C         8.1459787528       -1.4843422264        5.1010425167
 C         7.7576605942       -2.9372011502        4.8468819802
 C         6.2588695580       -3.0275866249        4.7638349055
 C         5.6830043799       -4.3703251350        4.3344951994
 C         8.3773066496       -3.2962154502        3.4665377404
 C         8.2855172550       -3.9426744270        5.8785196370
 O         8.9280691788       -0.9018918566        4.3551988765
 O         5.5465936130       -2.1343033661        5.2282651406
 C         4.2137113204       -4.6530432590        4.9579409326
 C         3.1431650575       -3.9274838592        4.1134421178
 C         1.6218401998       -4.4595051841        3.8969606937
 C         0.8015960225       -3.1860125038        4.4405228442
 C         0.6448736885       -1.9273250449        3.5694253160
 O         3.4603513472       -2.9019830555        3.4210300683
 O         0.4875145238       -3.2294670611        5.5913028443
 C         1.2811851115       -4.6141694400        2.3436505382
 C         1.1718170482       -5.7736949665        4.6770728844
 C         0.1103830261       -0.7561324328        4.3602994229
 C        -0.5190561112        0.3426851052        3.5073632569
 C        -1.1998562731        1.7776709540        4.0690465712
 C        -0.4512244594        3.0922792285        3.4170354140
 C        -0.0450230814        4.1915532432        4.4111801578
 C        -2.6656763893        1.6548724800        3.4320376892
 C        -1.2843489682        1.6594063978        5.5790327631
 O        -0.5312326886        0.2179530888        2.2992098948
 O        -0.3514284433        3.2221691078        2.2150858327
 C         1.4784181074        4.3701659213        4.3739669157
 C         2.2251977520        3.0255326799        4.1798042007
 C         3.6548446331        2.8531879355        3.5426415476
 C         3.4187279519        3.0986477023        1.9576031232
 C         2.7155290013        1.9110804218        1.1977854328
 O         1.4724376774        2.0843825869        4.4326312210
 O         3.9012583044        4.0093152159        1.2915526930
 C         4.5215834134        3.8645163114        4.2333099477
 C         4.1314495679        1.3312877303        3.8292245185
 C         2.6934713084        2.2034531612       -0.2985962486
 C         1.6469570407        1.3092247117       -1.1243125988
 C         1.8597202871        0.9167628565       -2.6098566852
 C         0.4687445236        1.2034102291       -3.2509179316
 C         0.0444437617        2.6923050235       -3.5151146957
 C         2.8958683688        1.5814216740       -3.4960134043
 C         2.1215582009       -0.6794924242       -2.7161141005
 O         0.5376387744        1.0855675755       -0.7294113388
 O        -0.3688175332        0.3417994887       -3.2400863641
 C        -1.4454929503        2.8137352878       -3.5996510717
 C        -2.1800360822        2.6406341614       -2.1694374950
 C        -3.6866126236        2.0060360026       -2.0244109295
 C        -3.2108466531        0.4764258483       -1.8465701676
 C        -3.6222853915       -0.6347736375       -2.8752961804
 O        -1.5669104499        2.8885161608       -1.1739861092
 O        -2.4414651153        0.2100203958       -0.9219240516
 C        -4.2226722676        2.6128764242       -0.6800022563
 C        -4.6164034673        2.3258447517       -3.1536323561
 C        -4.8904107086       -1.4331114737       -2.3670832076
 C        -5.5279043045       -2.3632006148       -3.5142828193
 C        -7.1674700133       -2.3237251564       -3.8885080829
 C        -7.3082709991       -0.9954328928       -4.6080133265
 C        -7.7345035335       -0.9195401345       -6.1728657752
 C        -7.3435759597       -3.4336897461       -4.9035558597
 C        -8.0664609990       -2.4420534347       -2.7113566720
 O        -4.7999411536       -2.9371007340       -4.2498106074
 O        -6.9246209000        0.0486601308       -4.1188062177
 C        -6.3804551967       -0.8942543837       -7.1009564310
 C        -6.5422391765       -0.0391797000       -8.3724758487
 C        -4.9863105058        0.1936866879       -9.0278833984
 C        -4.3979492838        1.3576818067       -8.2022348289
 C        -4.4906223575        2.8358663982       -8.6316763758
 O        -7.5298735315        0.2738729434       -8.9803807278
 O        -4.0221462702        1.0370779583       -7.0661235375
 C        -4.1337195684       -1.0885294557       -8.7620231052
 C        -4.9336846311        0.5239178142      -10.4831299472
 H         6.7082944858       -0.6742310160        6.1695834470
 H         7.9503670970       -1.6581144939        7.2380957910
 H         8.2285620805       -0.0110977106        6.6155293869
 H         5.6400046985       -4.4499002428        3.2003886710
 H         6.3755919667       -5.1006498643        4.7612629095
 H         9.3705571507       -2.9560609801        3.4340738918
 H         7.7295622675       -2.8224327833        2.7694716378
 H         8.4025902061       -4.3833388345        3.3298352795
 H         7.8395188242       -4.1204137867        6.7747631904
 H         8.0123103505       -4.9172243994        5.4490842061
 H         9.3970561705       -3.8096472377        5.9963383710
 H         4.1771322688       -5.7803663740        4.8186572658
 H         4.2418044703       -4.3920001086        5.9606525415
 H         1.6841877729       -1.8396646595        3.3116964117
 H         0.1115918787       -2.2318572685        2.6083013107
 H         1.5200821684       -5.6647894990        2.0142977854
 H         1.7586312940       -3.9574254860        1.6938175704
 H         0.1874327853       -4.6180393312        2.3130761249
 H         1.8062738895       -6.0263327396        5.5710583092
 H         0.1601480041       -5.7391110087        5.0937830037
 H         1.1373243402       -6.5721793416        3.9705820434
 H         0.8304463490       -0.2249417022        4.9300862583
 H        -0.6903378229       -1.1149558627        4.9454072217
 H        -0.4392731516        5.1410458216        3.9719500811
 H        -0.2577157139        3.9080790527        5.3840224089
 H        -3.3571658382        2.5176291623        3.6286427592
 H        -3.1850042266        0.8244977924        3.7659563507
 H        -2.4190786738        1.5183867937        2.3906383275
 H        -1.4755094936        0.6608268406        5.8730213148
 H        -0.3955979433        1.9270852983        6.0536078713
 H        -2.0712077987        2.3241955893        5.8743224153
 H         1.7906378758        5.1044900139        3.6555444247
 H         1.7573057111        4.9785138007        5.2057477984
 H         3.3533174997        1.0598716202        1.4482259813
 H         1.6631863982        1.8251077763        1.6558091885
 H         4.4496330297        3.9563762433        5.3679295456
 H         4.3122092567        4.8368462945        3.8016291687
 H         5.5688737443        3.6312535938        4.0861692553
 H         4.9981085363        1.0212115080        3.2674985373
 H         4.2107657890        1.2461454149        4.9027038012
 H         3.2767238645        0.6436932823        3.5832702370
 H         3.6932746275        1.9526336223       -0.6697901241
 H         2.4824235338        3.2955762592       -0.3925924654
 H         0.4283510629        3.2902937036       -2.6741943666
 H         0.5780593856        3.1207745007       -4.4339025861
 H         3.8306557977        1.5939174788       -3.0456630357
 H         2.5009035206        2.5350494481       -3.7454771180
 H         2.9988310184        1.1806751151       -4.5182843049
 H         2.9795294678       -0.7919509561       -2.1208220258
 H         1.1771873105       -1.1613589365       -2.3000981072
 H         2.1747207461       -1.0120715180       -3.7923009583
 H        -1.8669099576        3.7588728441       -3.9608509070
 H        -1.7178201345        2.0386807870       -4.2774346519
 H        -3.7099653877       -0.1923752344       -3.8578482269
 H        -2.6844300378       -1.2978112658       -2.8829168413
 H        -4.0460220578        1.9001945692        0.1256594054
 H        -5.3263079597        2.8428111504       -0.7472361895
 H        -3.6666409238        3.4810156690       -0.4802506002
 H        -4.4386971985        1.8824571286       -4.0436931839
 H        -5.6529058405        1.9332131023       -2.9873677408
 H        -4.6285673920        3.3504609820       -3.4945606041
 H        -5.5781646817       -0.6426255544       -1.9683767730
 H        -4.7431648310       -2.1318544702       -1.5753985578
 H        -8.5277923657       -1.5877324725       -6.5520464437
 H        -8.0912053459        0.1099396376       -6.2846209670
 H        -7.3121868097       -4.4678905547       -4.5502602585
 H        -6.5777211329       -3.2721618735       -5.6546672955
 H        -8.2919300565       -3.1690294760       -5.2033669891
 H        -9.0697686706       -2.1010941796       -3.0535036247
 H        -8.2209792858       -3.4178362101       -2.3722072976
 H        -7.8166221964       -1.8517767920       -1.8026807267
 H        -5.6025508693       -0.4217466334       -6.5346918319
 H        -6.0020990806       -1.8883153669       -7.4749650301
 H        -4.1294095792        3.3997855120       -7.7653774864
 H        -3.9981671178        2.9944092823       -9.5518682883
 H        -5.5132424912        3.1634474069       -8.7694392121
 H        -4.6362925395       -1.9765857341       -9.1400257051
 H        -3.9656213317       -1.2465428867       -7.7135348781
 H        -3.1946240757       -0.9193339547       -9.3123191261
 H        -3.9452259645        1.0164189033      -10.7143433629
 H        -4.9995660272       -0.3358892405      -11.1217607188
 H        -5.6481801664        1.2306635623      -10.7731944486
 Na       -1.1226453252        1.5120189682        0.7091573250
