155

 C        -2.4404980248        3.6138445065        5.6517504898
 C        -3.5928483299        2.6767294654        5.4144927836
 C        -4.0651425928        1.7085346744        6.6529438787
 C        -2.8472555294        1.3149835148        7.4916482451
 C        -2.0778714238        0.0145931026        7.2574431236
 C        -4.9730812535        2.5720670267        7.5348866476
 C        -4.9432917475        0.5796000079        6.0491728301
 O        -4.1673821001        2.5365991509        4.3550937281
 O        -2.4400631608        1.9921053714        8.4030682003
 C        -1.0249603948        0.1463045500        6.1900254500
 C        -0.1608355826       -1.1030161823        6.2024085351
 C         1.3632677941       -1.0226513931        5.6835822515
 C         1.5337082233       -2.0397141483        4.5802828431
 C         0.6198442990       -2.0843983296        3.2233291117
 O        -0.5257013472       -2.1208198941        6.7206807099
 O         2.2614239573       -2.9650573521        4.7163098446
 C         1.6485771118        0.3376169238        4.9763177267
 C         2.2859736458       -1.2904773040        6.8315912616
 C         0.1684332239       -3.5429101516        2.8790680916
 C        -0.6038732055       -3.3071803567        1.5682671742
 C        -0.9306217004       -4.5385804642        0.6188392710
 C        -0.7819428437       -4.0132935472       -0.9956764639
 C        -1.6149818687       -4.8704337174       -1.8813191020
 C        -0.0677789219       -5.7707353055        0.7528995299
 C        -2.3974997115       -4.9636872180        1.0404956399
 O        -1.1077245957       -2.2397497139        1.2797383524
 O        -0.0265320197       -3.1170915244       -1.1999033439
 C        -1.7065988225       -4.3371420154       -3.2621584198
 C        -3.0551888858       -4.5400023264       -3.9311947580
 C        -3.4036991739       -3.5619013166       -5.1769282055
 C        -4.2894011384       -2.3890676013       -4.5769669936
 C        -5.2372736766       -2.6100616542       -3.4231393260
 O        -3.9348101351       -5.1939483477       -3.5230680470
 O        -4.2234947902       -1.2675503655       -5.0681460269
 C        -2.1322156090       -2.9737355691       -5.8650274749
 C        -4.2963766211       -4.3437724339       -6.1659171029
 C        -5.6065841767       -1.3058991882       -2.6379057773
 C        -4.4193130505       -0.5800853275       -1.9487631888
 C        -4.5055431132        0.9359198425       -1.3693411927
 C        -3.0449013951        1.4540425628       -1.5254286072
 C        -2.5275402710        1.9263433998       -2.8977262606
 C        -5.4980593504        1.7091331677       -2.3677563797
 C        -4.9475927627        0.7454817200        0.0805654920
 O        -3.4539643677       -1.2620088783       -1.6679764471
 O        -2.4293728547        1.5245141770       -0.5025371038
 C        -0.9502848581        1.8631346323       -2.8935471587
 C        -0.4102216626        0.4409633289       -3.0102911751
 C         1.1138208139        0.1149591851       -2.9613693671
 C         1.4364143188        0.2444605370       -1.4824965634
 C         2.9330826794        0.5213801711       -1.2109404370
 O        -1.2450468833       -0.4847176594       -3.0662206747
 O         0.6034841982       -0.0125385635       -0.6111842600
 C         1.3670428161       -1.3204823130       -3.4698358078
 C         1.9237290478        1.1469839852       -3.8167202198
 C         3.2514858839        0.8584096628        0.1784774613
 C         2.5837260113        2.0597947134        0.8291968469
 C         3.1482461448        3.5112240264        0.6339880807
 C         3.0514889345        3.8352374710       -0.9238302861
 C         4.1706696634        4.7197338853       -1.6748610911
 C         2.4818349551        4.5874407914        1.4762615606
 C         4.6268776202        3.5036845105        1.1949539071
 O         1.7361179071        1.9812168139        1.7151705396
 O         2.0157363027        3.5069635873       -1.4849065661
 C         4.3779442056        4.3768192237       -3.1053020086
 C         5.3324127692        3.2423963394       -3.4298514543
 C         5.9660321252        3.1006314141       -4.9154729089
 C         4.7697335392        2.7549612177       -5.8168537205
 C         5.0846146709        2.3642207137       -7.2685002359
 O         5.6096231750        2.5030045728       -2.5265292065
 O         3.6480611214        3.0566100298       -5.4664250959
 C         6.7883684632        4.3138697812       -5.4659175172
 C         6.9000901142        1.8229988951       -4.9344711445
 H        -1.4647076798        3.1041816697        5.3017406223
 H        -2.4448365252        4.5788847030        5.2466538354
 H        -2.5109916307        3.7220352834        6.7266785427
 H        -1.7543966499       -0.2891245709        8.1991020076
 H        -2.7383779003       -0.8036113898        7.0343137125
 H        -4.4015022352        3.4663296394        7.9130998816
 H        -5.3267454290        1.9644425283        8.3282328226
 H        -5.8200055450        2.8472894578        7.0205852716
 H        -5.8716017964        1.0560200231        5.5776427386
 H        -4.4465502824        0.1924875232        5.1803695354
 H        -5.2675447555       -0.1981071991        6.7998406338
 H        -1.4013035032        0.3926993680        5.2278109782
 H        -0.3652341537        1.0561051939        6.4488404122
 H        -0.1874882691       -1.4003838609        3.2807334762
 H         1.2148238338       -1.6494775629        2.4292378948
 H         1.1011917851        0.5110068083        4.0087710760
 H         2.7134322846        0.4568143449        4.7574090903
 H         1.3464588082        1.1533564905        5.7180102398
 H         3.1011838030       -0.5875608235        6.6890634476
 H         1.8893823834       -1.3234668174        7.8181606591
 H         2.6910329570       -2.2861981487        6.5904412504
 H        -0.5853076631       -3.8998645320        3.6232471599
 H         1.0394713639       -4.2355714432        2.7514919423
 H        -1.2821947077       -5.9342656814       -1.9277105143
 H        -2.6304760118       -4.9801590516       -1.5240586154
 H         0.9556490630       -5.4916194144        0.7705413894
 H        -0.3220664038       -6.4894616853        0.0046946110
 H        -0.3597918416       -6.1869272985        1.7850410705
 H        -2.2450061825       -5.2198720551        2.0315297856
 H        -3.1451391920       -4.1258507761        0.9666836649
 H        -2.8686555433       -5.8743431665        0.5842405884
 H        -1.5398324652       -3.2276671973       -3.1572736482
 H        -1.1294626597       -4.6753997898       -4.0416213568
 H        -6.1538776097       -3.0196523772       -3.8487583028
 H        -5.0072054834       -3.4030008188       -2.7212465589
 H        -1.5252580502       -2.4686381263       -5.1723326246
 H        -2.6079184566       -2.2237215228       -6.5516749399
 H        -1.4513018039       -3.7053666383       -6.3292349355
 H        -3.6721210790       -5.1096522061       -6.6659256526
 H        -5.0895915995       -4.7965301946       -5.5945294268
 H        -4.5949935489       -3.7025589129       -7.0759383878
 H        -6.2179875969       -1.6242259103       -1.8080462468
 H        -6.2753542743       -0.7146063982       -3.2472450502
 H        -2.9353689117        1.2566696520       -3.6662069118
 H        -2.8443962025        2.9364431355       -3.2020215753
 H        -5.4689259422        2.7661565628       -2.3186854288
 H        -6.5067611941        1.4475972514       -2.0692591521
 H        -5.3244775846        1.5363633939       -3.3777363411
 H        -4.2389208658        0.0608354033        0.5767059256
 H        -5.1184480936        1.7420031181        0.5631059510
 H        -5.9733862877        0.3860873493        0.1738453667
 H        -0.4472797409        2.5549843921       -3.5670623556
 H        -0.7480191862        2.2258597461       -1.8251468031
 H         3.3921544926       -0.4263898169       -1.4545998921
 H         3.4239392076        1.2310925460       -1.8449858158
 H         0.9898746499       -1.4404061908       -4.4504819436
 H         0.9631820238       -2.1126672649       -2.8202665436
 H         2.4239842784       -1.4693785602       -3.5785315537
 H         1.4491742907        1.2008051729       -4.7238615574
 H         1.8335080713        2.0674322481       -3.1837840721
 H         2.9787320105        0.7820046804       -3.9700427165
 H         4.3494333336        0.9514263563        0.2518630677
 H         3.0029569680       -0.0252941092        0.8392718742
 H         3.8448593737        5.7189955432       -1.5496734742
 H         5.1594042875        4.5198928774       -1.1496279722
 H         2.4321246772        4.4110366455        2.5737714741
 H         1.4896807069        4.8961105923        1.1534357127
 H         3.0515706876        5.5271824930        1.2756275661
 H         4.9292620139        4.5480809664        1.4270745391
 H         4.8258721317        2.8646366657        2.1164500233
 H         5.4330637006        3.0396932822        0.6424030371
 H         3.3742986348        3.9974292381       -3.4323014991
 H         4.5856066785        5.3176983961       -3.6853829210
 H         5.0072925944        1.3268251145       -7.4907848962
 H         4.4162944803        3.0211804297       -7.9190039005
 H         6.1203890137        2.6683185455       -7.5246557588
 H         6.8767094076        4.2568631512       -6.5386214332
 H         7.7689585961        4.4384213000       -5.0560587082
 H         6.1392225673        5.1043418615       -5.0999406274
 H         6.6141006662        0.9075456487       -5.4905832702
 H         7.9475282140        2.1330682180       -5.4258703471
 H         7.0875987294        1.4110545385       -3.9517366583
 Na       -1.4924227195       -0.8325245618       -0.5559888228
