155

 C        -3.6348717180        3.6553838818        5.8201063558
 C        -2.8950986248        2.2815785457        5.9550258365
 C        -3.4189859101        1.1093489063        6.8911402888
 C        -2.2781826632        1.0655801842        7.9976048346
 C        -1.1108121178        0.0480144931        7.9074231543
 C        -4.8351142487        1.3128401728        7.5145967677
 C        -3.4210116322       -0.2126608247        6.0277926392
 O        -1.9820930699        2.0515959209        5.1475598804
 O        -2.3189183676        1.7750177071        8.9894777535
 C         0.0385404441        0.3038925076        6.8847230564
 C         0.8006835237       -0.9911351667        6.2839827544
 C         1.7530694357       -0.8740098218        5.0157722004
 C         1.2872720226       -1.8382444285        3.8393810535
 C        -0.1777077632       -2.4223985196        3.6680881459
 O         0.4539901401       -2.1190861359        6.6113584662
 O         2.1343007887       -2.2184899069        3.0605242752
 C         2.0391809637        0.4875354357        4.4099938666
 C         3.0666709710       -1.3788603105        5.4941170203
 C        -0.0466812299       -3.6764494100        2.7510889510
 C        -0.8771158426       -3.6834219499        1.4761873660
 C        -0.7967094016       -4.8453548004        0.4568591610
 C        -1.4226209588       -4.1478852586       -0.8967595684
 C        -2.8064040705       -4.4352362652       -1.3098216112
 C         0.6420570825       -5.2549113653        0.2103277538
 C        -1.7389054781       -5.9965145138        1.0309788042
 O        -1.5117262729       -2.6657329754        1.1358518315
 O        -0.5873476146       -3.5632893739       -1.5658288505
 C        -3.3366845819       -3.4739686430       -2.3894344445
 C        -4.5426307675       -4.0870241080       -3.0239494614
 C        -5.3002578350       -3.1013458515       -4.0753355154
 C        -5.4725332812       -1.6378701612       -3.4389129834
 C        -6.3904454775       -1.4658188764       -2.1601972460
 O        -4.9633694089       -5.2124053864       -2.6466123723
 O        -4.7386329573       -0.6717531535       -3.7560788978
 C        -4.4450750695       -2.9074412066       -5.3068993212
 C        -6.6566459166       -3.7856246635       -4.4841024398
 C        -6.1442843849       -0.0507608987       -1.5591537421
 C        -4.6299394893        0.1203914694       -1.1860160943
 C        -4.0164581656        1.5337430837       -0.9328173776
 C        -2.4776418054        1.5530937701       -1.2314183502
 C        -2.0448829670        2.2648749372       -2.6049958394
 C        -4.8058966127        2.6293104763       -1.7163256970
 C        -4.2144313915        1.9327134873        0.6141636473
 O        -3.9039910668       -0.8585529151       -0.8958928712
 O        -1.5946316801        1.1059878800       -0.5727968379
 C        -0.6532563266        1.9442119195       -3.0266891134
 C        -0.3545318272        0.4456828720       -3.0905766794
 C         1.1135147142        0.0000727152       -3.0728761788
 C         1.5922754015       -0.1274025104       -1.4767329727
 C         3.0629201479        0.1295940144       -1.1962173737
 O        -1.2301644189       -0.4371982111       -3.1149014072
 O         0.7729852701       -0.3319172228       -0.6267004748
 C         1.2060986383       -1.4112202266       -3.6244287944
 C         1.8866338572        0.9760393200       -3.9932827332
 C         3.4320258587        0.5268113488        0.2670812818
 C         3.0402165707        1.9374875989        0.5495391391
 C         3.8984901530        3.0724681577       -0.1651385194
 C         3.2476839738        3.5355423848       -1.5071513493
 C         4.1286098463        4.6316998486       -2.3368017582
 C         3.8417514285        4.3453317873        0.7933655121
 C         5.4038356719        2.6860838104       -0.3656355422
 O         2.2868113688        2.1922611414        1.4813605889
 O         2.1440101844        3.2007359928       -1.9547430484
 C         4.1092210177        4.3510896478       -3.7953385106
 C         4.8749997792        2.9930733864       -4.1520718533
 C         5.8009413202        2.8504308909       -5.5063044808
 C         4.8768082970        2.9291619863       -6.7982684941
 C         5.5068959615        2.9844375032       -8.1912998817
 O         4.7037719144        2.0075884199       -3.4641184674
 O         3.6442059863        3.1699445826       -6.6359114619
 C         6.8332743607        4.0927235492       -5.6743689675
 C         6.5488684240        1.5362873933       -5.3486226331
 H        -4.5133993242        3.7818174718        6.4572034620
 H        -2.9329402187        4.4475293847        6.1604897895
 H        -3.8434994997        3.8213299837        4.7185879993
 H        -0.8118103731       -0.1851795439        8.9323798928
 H        -1.5592360516       -0.8768425274        7.5822671169
 H        -4.6847519667        1.8079936011        8.5230627689
 H        -5.1678962066        0.2743214143        7.6409061789
 H        -5.5836882409        1.8513048286        6.9313127530
 H        -4.3591415999       -0.2282019078        5.4749145417
 H        -2.6874971701       -0.4007891233        5.3291889176
 H        -3.5455235197       -1.0968938633        6.6662258212
 H        -0.4308999813        0.7765135563        5.9400759651
 H         0.7842373366        0.9239769389        7.3334060089
 H        -0.6140607565       -2.6132752632        4.6985802135
 H        -0.7607533636       -1.6278511530        3.1925138588
 H         1.2358845090        1.0903027395        4.6637777927
 H         2.1831996927        0.5394344370        3.3532095074
 H         2.8919419757        0.9605669171        4.9102439118
 H         3.1155903479       -1.1771126509        6.6017836399
 H         3.1515121200       -2.4154421647        5.3940917781
 H         3.9057147013       -0.9212068736        5.0344068707
 H        -0.1600730248       -4.5626226843        3.4116468702
 H         1.0315445943       -3.7923932189        2.3767876803
 H        -2.8997000666       -5.4209757787       -1.7250034743
 H        -3.4612512430       -4.4348735975       -0.4165635080
 H         1.2626444765       -4.3653918048       -0.0644441702
 H         0.8506689803       -6.0712425002       -0.4710421512
 H         0.9624040864       -5.5870359385        1.2791264161
 H        -1.3341041752       -6.4985633021        1.8616708066
 H        -2.6166602675       -5.5143572649        1.5258304018
 H        -2.2913457343       -6.7210103552        0.3554350435
 H        -3.7578391118       -2.5075290258       -2.0000201541
 H        -2.6582356993       -3.2849782467       -3.2502981405
 H        -7.4375665883       -1.5022789249       -2.4515739376
 H        -6.2242244535       -2.3246350234       -1.4753680326
 H        -3.5213802664       -2.4258875320       -5.1310931746
 H        -4.9971014223       -2.3227392668       -6.0530042061
 H        -4.0619547111       -3.8485729553       -5.7076057860
 H        -6.5275149869       -4.7868583377       -4.7399805504
 H        -7.2986659178       -3.9208877590       -3.6865991729
 H        -7.2335238663       -3.3815910304       -5.3276715552
 H        -6.7689898189       -0.0060153363       -0.6225625683
 H        -6.5506286903        0.7098587757       -2.2032576796
 H        -2.6807280368        2.0358243755       -3.3815248551
 H        -2.0895809173        3.3523218049       -2.4271069001
 H        -4.1918860934        3.5872333026       -1.7377917948
 H        -5.8641229645        2.7048774957       -1.2885490454
 H        -4.8220375097        2.3072200825       -2.7577636623
 H        -3.9465862346        1.0966374149        1.2353164663
 H        -3.6299038667        2.7934272757        0.8161177255
 H        -5.1562559927        2.2965091532        0.9818474741
 H        -0.4303298017        2.3248409590       -4.0697752972
 H         0.1185264200        2.3558527989       -2.3945341921
 H         3.5985849095       -0.7051609832       -1.6355326978
 H         3.3560834378        0.8563619284       -1.8447753065
 H         0.8395273737       -1.4749786053       -4.6816223798
 H         0.4520069645       -2.0580428701       -3.0894767920
 H         2.2434855691       -1.8116907678       -3.5301467681
 H         1.2567645216        1.2809959370       -4.7909025520
 H         2.2162115052        1.8291553162       -3.4908659143
 H         2.7832328618        0.5094644484       -4.3988688286
 H         4.4720291851        0.4798213046        0.4051549950
 H         3.0814806098       -0.1370179105        0.9992308998
 H         3.7496901169        5.6433296084       -2.0841433144
 H         5.2115446049        4.5137144130       -2.1038776779
 H         4.6321012724        4.1389064182        1.5738518562
 H         2.8720329376        4.5003887801        1.2724306311
 H         4.1221952668        5.2492535468        0.2061481996
 H         5.9713202131        3.5622031143       -0.4185080927
 H         5.6819524783        2.1796173620        0.5484723518
 H         5.4576845384        1.9785754620       -1.1099015572
 H         3.0943537724        4.2843917074       -4.1617579740
 H         4.4208663989        5.3579889993       -4.3412491994
 H         4.7613113302        2.4639755486       -8.8373669122
 H         5.6706440361        3.9997340918       -8.4518539929
 H         6.4089811284        2.5211446010       -8.3325881575
 H         7.5416672074        3.8124400141       -6.4690794013
 H         7.4861449665        4.2487977687       -4.8210262386
 H         6.3551639395        5.0094240696       -6.0093512887
 H         7.0585652877        1.4197236770       -4.3513297508
 H         5.7884694299        0.8343165704       -5.4826756910
 H         7.3013214099        1.3432502065       -6.2056849230
 Na       -1.4918089503       -1.2791998644       -0.7957662342
