155

 C        -3.4441530388        3.5140430352        6.1906207807
 C        -2.8632703021        2.1269345414        5.9558115336
 C        -3.3619734121        0.9137227549        6.8806055177
 C        -2.1180069549        0.9841718638        7.9738754236
 C        -0.9690189847        0.0704436336        7.8670443858
 C        -4.6138769341        1.2244000565        7.6119643324
 C        -3.3720329386       -0.3581500378        6.0484396500
 O        -1.9744265593        1.9321574918        5.1325286181
 O        -2.2515478645        1.8089981553        8.8602889312
 C         0.0971616150        0.4014368046        6.7862904887
 C         0.7097769838       -0.8794834706        6.2019513925
 C         1.6575261318       -0.9328732971        5.0122171568
 C         1.3362094257       -1.8615448835        3.8476142901
 C        -0.1068669690       -2.4517750395        3.7152324361
 O         0.5116721416       -1.9466738845        6.7444984577
 O         2.1567812033       -2.0576382728        2.9670569146
 C         1.8319379612        0.4425543494        4.3926912853
 C         3.0839721013       -1.4375595909        5.4119362934
 C        -0.1291598052       -3.6525048945        2.7480727468
 C        -0.8633679996       -3.4321582229        1.4204963588
 C        -0.8165612183       -4.8110247810        0.3468214618
 C        -1.4070187519       -4.3026686543       -0.9285238516
 C        -2.9811696014       -4.3768935233       -0.9755277679
 C         0.6864133503       -5.3617434616        0.2032314114
 C        -1.6107970943       -5.9369047694        0.9717240791
 O        -1.4150972387       -2.3927024441        1.2147062281
 O        -0.7351698883       -3.7458754711       -1.7919552079
 C        -3.3880701695       -3.6959290750       -2.3014299769
 C        -4.8993366514       -4.0131171004       -2.7907499482
 C        -5.4484692016       -3.0465553175       -3.8452009072
 C        -5.6009283021       -1.5816035036       -3.2602123527
 C        -6.5448748403       -1.2803977999       -2.0189551919
 O        -5.4240832621       -5.0415516372       -2.5976716302
 O        -5.0065394161       -0.7128122598       -3.8403317026
 C        -4.4760126718       -2.9907101433       -5.0319721318
 C        -6.7838217408       -3.4696894442       -4.3366774491
 C        -6.0860140726        0.0217244069       -1.3937960124
 C        -4.5816323076        0.1281727938       -1.1440567006
 C        -4.0040437531        1.6040534123       -0.8897850853
 C        -2.5225174972        1.6035701826       -1.3247009414
 C        -2.0395665094        2.1750060091       -2.6481665611
 C        -4.7999695747        2.6503851266       -1.7314802759
 C        -4.0962333310        2.0230652998        0.6382436128
 O        -3.8863347016       -0.8055595662       -0.9414912729
 O        -1.8474274743        1.0082430586       -0.4691593788
 C        -0.5094624964        1.9640587544       -2.8911007686
 C        -0.2922183368        0.3890917578       -2.9962149260
 C         1.1242465650       -0.0555923035       -3.0938978406
 C         1.6272207578       -0.2740157536       -1.5822629168
 C         3.1268175767       -0.1193299274       -1.2377592324
 O        -1.2979726757       -0.2874919842       -2.8992862140
 O         0.8228437711       -0.4724219278       -0.6703111192
 C         1.2109163320       -1.5067901144       -3.5315506286
 C         2.1077005600        0.7758561891       -3.8548737838
 C         3.3067511843        0.3742345987        0.1259188567
 C         2.9844639535        1.8637211437        0.3646080450
 C         3.9146901846        3.0641802295       -0.2203576664
 C         3.3551807972        3.6485629242       -1.6376611944
 C         4.2271406461        4.6344736536       -2.4235398471
 C         3.8167234819        4.2598735412        0.8075869615
 C         5.4064204697        2.4985586022       -0.4591309789
 O         2.1934919948        2.0962398214        1.2332055446
 O         2.1834833497        3.4456595205       -1.9037133309
 C         4.2836007433        4.4252653700       -4.0164509316
 C         5.0008644595        3.0655112272       -4.2693598912
 C         5.8444008819        3.0205561169       -5.6503778512
 C         4.7882720169        3.0797726997       -6.8261287934
 C         5.4545510205        3.0977511918       -8.2471959353
 O         4.8635692579        2.0903146049       -3.5443962406
 O         3.6024483858        3.2035428184       -6.7391159850
 C         6.9061815931        4.0851524386       -5.6952060146
 C         6.5123191372        1.5560517169       -5.6925032846
 H        -4.5163259479        3.4539062689        5.8096016062
 H        -3.5381410865        3.9447784156        7.1916671824
 H        -2.9250470657        4.1806974939        5.5537134614
 H        -0.4851493803        0.0734565532        8.8795941399
 H        -1.2667601893       -1.0270445583        7.8561203900
 H        -4.5769393763        2.2415835578        7.9742647333
 H        -4.8048962840        0.4987540798        8.4014058289
 H        -5.4060078621        1.2094132957        6.8503820300
 H        -4.1338418103       -0.3821736485        5.2299958356
 H        -2.3119608878       -0.6266918859        5.6622978447
 H        -3.6238014492       -1.2518954970        6.6414291813
 H        -0.2789209385        0.9180061023        5.9398513369
 H         0.8710470576        1.0168501682        7.3447714807
 H        -0.3545522461       -2.6226957363        4.7351308310
 H        -0.8435259062       -1.7205792696        3.3524239906
 H         0.8620710818        0.7912825801        3.8893313472
 H         2.6997133206        0.5913801876        3.7235051145
 H         1.8774604598        1.1121521886        5.2784274967
 H         3.6545016525       -0.5515720484        5.7106412080
 H         2.9870569538       -2.1243016844        6.3078651081
 H         3.7149423599       -1.9594531922        4.6063714773
 H        -0.6576551200       -4.5064755300        3.2200076441
 H         0.9275137572       -4.0259376745        2.6857636437
 H        -3.3039887644       -5.4544266203       -0.9735308133
 H        -3.4192616249       -3.9124571689       -0.0997315045
 H         1.2646494359       -4.6939228067       -0.4076278456
 H         0.5795915690       -6.2780258428       -0.3832163769
 H         1.2401980218       -5.4283760497        1.1267339601
 H        -1.1112613213       -6.3436704587        1.8970830453
 H        -2.6372316792       -5.7847005227        1.3176511999
 H        -1.6755186496       -6.7734943883        0.2808641473
 H        -3.3574985880       -2.6443152429       -2.1939064952
 H        -2.6689492680       -3.9485927866       -3.1009738213
 H        -7.6075915092       -1.3441216982       -2.3014805856
 H        -6.3831542413       -2.1006386488       -1.3272951102
 H        -3.4298147697       -2.8897466113       -4.7040880055
 H        -4.7330356686       -2.2496332384       -5.7812878703
 H        -4.2973032756       -3.9729206054       -5.4510858878
 H        -6.8639062264       -4.5459933818       -4.6422137575
 H        -7.5954869477       -3.4441260969       -3.5688847659
 H        -7.1387797105       -2.8824457595       -5.1665405044
 H        -6.5169202506        0.0521360252       -0.4234099528
 H        -6.5070909247        0.8972041564       -1.8964138576
 H        -2.6485979001        1.6731346908       -3.5145120023
 H        -2.2963413992        3.2421906439       -2.6165792712
 H        -4.3219975781        3.5745348458       -1.6414190424
 H        -5.8206815828        2.7875802845       -1.5228438242
 H        -4.6723570503        2.3473370492       -2.7513042651
 H        -3.3000131498        1.5307339705        1.2189274220
 H        -4.0123010162        3.1489427839        0.7923029372
 H        -5.0086478489        1.7244019496        1.1612775416
 H        -0.2514228878        2.4956013122       -3.7762224005
 H         0.2131941331        2.2552389385       -2.0821811235
 H         3.6401120007       -1.0933821755       -1.4858066779
 H         3.7189041048        0.5997961328       -1.9141558191
 H         0.5795103345       -1.7133554378       -4.3793563167
 H         0.8341792603       -2.1974519997       -2.7665522155
 H         2.2657329406       -1.7571855915       -3.6994258518
 H         1.8295491597        0.8157138520       -4.9237677773
 H         2.0737491781        1.8827636618       -3.5183345602
 H         3.1326145421        0.4225668089       -3.8006030092
 H         4.3473665261        0.0725394734        0.4573691494
 H         2.6642199983       -0.1594857479        0.8823449744
 H         3.6997461382        5.4988334164       -2.0030913116
 H         5.2296915026        4.6562890331       -2.0449038906
 H         4.2808984697        3.9330720279        1.7496433591
 H         2.7519205008        4.6134578098        0.8603088128
 H         4.4571575519        5.0985009067        0.4931487648
 H         5.9610272765        3.4452718773       -0.4875715382
 H         5.7961565139        1.8862038002        0.3727335659
 H         5.3395821533        1.9027400477       -1.3946346050
 H         3.2682731388        4.4974338268       -4.4362955000
 H         4.7387775770        5.1829576936       -4.5371828952
 H         4.7905306977        2.8857344787       -9.0445067396
 H         6.0675366270        4.0518773673       -8.3579833452
 H         6.2663896817        2.3024313136       -8.3365616881
 H         7.5432672151        4.0984116339       -6.5755613984
 H         7.5395846788        4.0491082643       -4.7970118561
 H         6.3695284936        5.0371081853       -5.7153929711
 H         6.9612401011        1.4271603224       -4.7008453012
 H         5.8681734782        0.6622371732       -6.0704680722
 H         7.3414329885        1.6047908445       -6.3507162779
 Na       -1.3916161195       -1.3239337006       -0.8264971847
