155

 C        -2.8389005940        3.3646753554        6.4964827564
 C        -2.8636576618        1.9237102604        6.0097798821
 C        -3.0012004310        0.7913099562        6.9959885709
 C        -1.8863202935        0.9210164394        8.0517494823
 C        -0.6853356649        0.0313450211        8.0066037294
 C        -4.4592073775        0.9337467347        7.6647494241
 C        -3.0001164458       -0.5191321414        6.2016057541
 O        -2.6601645344        1.6925964014        4.7976229891
 O        -2.0486598267        1.8473469099        8.8694372919
 C         0.1441815619        0.2012879678        6.7517623815
 C         0.7502273517       -1.0235096770        6.1389160862
 C         1.7967212231       -0.8027382551        4.8303884765
 C         1.3084679492       -1.8022167887        3.7996689504
 C        -0.0710812090       -2.5073421689        3.8634152098
 O         0.5449911792       -2.1199248908        6.6269169021
 O         2.1030064642       -2.0792954042        2.8686361046
 C         1.5875337490        0.6495885703        4.1452420181
 C         3.2357747410       -1.0452927129        5.3539267209
 C        -0.2024325471       -3.7607159804        2.8818133477
 C        -0.8080452123       -3.4278518597        1.5035221247
 C        -0.9971863842       -4.6173979516        0.5161613920
 C        -1.7749267195       -4.1698227832       -0.7337817235
 C        -3.3498035144       -4.4356895876       -0.9262731322
 C         0.5132505596       -4.9306084805        0.1251670001
 C        -1.4504245590       -5.9535517082        1.0921482985
 O        -0.8594510561       -2.2506631223        1.1486985211
 O        -1.1061473095       -3.6142291075       -1.5918682545
 C        -3.7400844755       -4.1117723511       -2.4370764414
 C        -5.2359276213       -3.9680525966       -2.5579042284
 C        -5.8320995382       -2.9623321408       -3.7940708604
 C        -5.7195773910       -1.5628238904       -3.0484572576
 C        -6.2648370721       -1.3429731441       -1.6148437231
 O        -6.0043323785       -4.2070158634       -1.6465658171
 O        -5.3461328440       -0.5352181483       -3.6785593956
 C        -5.0169174371       -2.9000663957       -5.0719889036
 C        -7.3256176808       -3.3398792227       -4.1081090842
 C        -5.9762370854        0.0484521970       -1.1599401171
 C        -4.4838255076        0.2275014407       -0.9627784337
 C        -4.0246150498        1.7905228073       -0.8648955545
 C        -2.4158779491        1.7075012782       -1.1522066742
 C        -1.9020221425        2.1215170703       -2.4901133412
 C        -4.7479185742        2.8203568712       -1.7586536691
 C        -4.1105754639        2.1643276087        0.6520350291
 O        -3.7110897582       -0.6662805839       -0.8447725770
 O        -1.7310891204        1.0900791640       -0.3170583638
 C        -0.4689059989        1.8578211033       -2.7501887206
 C        -0.3115841181        0.2916810963       -3.0901335591
 C         1.0862187037       -0.4002972286       -3.1668187328
 C         1.6785128286       -0.5639639406       -1.7292652562
 C         3.1090263435       -0.1070014959       -1.3811037438
 O        -1.2653884508       -0.4336492636       -3.1894032428
 O         1.0754826939       -1.2297134746       -0.8736796918
 C         1.0852273846       -1.8515772146       -3.7251619374
 C         2.0386415122        0.5641326184       -3.9714932529
 C         3.2984525117        0.3958880790        0.0242354912
 C         2.9524098920        1.9618802965        0.1014451152
 C         4.0821621016        3.0490982475       -0.2971335659
 C         3.6251302859        3.5294009455       -1.6734952745
 C         4.3805037070        4.5024254653       -2.4782011399
 C         4.2537549506        4.2460904416        0.7020111694
 C         5.5119010429        2.3455095129       -0.4720993821
 O         1.7935504024        2.2378623358        0.3313064121
 O         2.5384421341        3.0445469775       -2.0654461296
 C         4.2148958509        4.2342162556       -4.0538412647
 C         5.1058197747        3.0688239682       -4.3298596381
 C         5.8193921987        2.9558878130       -5.7462669691
 C         4.7669326597        3.4226654219       -6.8633683910
 C         5.2872589968        3.5692714656       -8.3114747821
 O         5.2517357844        2.0992529624       -3.5999223462
 O         3.5388136939        3.4944015702       -6.6022123907
 C         6.9207471266        4.1377909827       -5.8857817757
 C         6.5117976252        1.6637492250       -5.9765162883
 H        -3.9138104062        3.6704384601        6.9030700521
 H        -2.2882312925        3.4844202424        7.4410141524
 H        -2.5038452133        4.0678531263        5.7424278476
 H        -0.0620971769        0.1154712723        8.9540396720
 H        -1.0147346484       -1.0308738497        8.1514334081
 H        -4.5769729395        1.6410283796        8.5590896994
 H        -4.7655856826       -0.0492415192        8.0155825106
 H        -5.0476962038        1.2834528432        6.8187031242
 H        -4.0223562922       -0.8851316389        5.9498495738
 H        -2.4029770517       -0.4569939301        5.3006210448
 H        -2.4256448498       -1.2716575368        6.6818633805
 H        -0.4637245935        0.6170431110        5.9496106645
 H         1.0416091844        0.9204449351        6.7676438637
 H        -0.1666853890       -2.8959774985        4.8672048214
 H        -0.8933109164       -1.7910147077        3.8808393927
 H         0.5136604591        0.8153000136        4.0143577251
 H         2.0755479920        0.6029519674        3.2299817728
 H         1.9968547453        1.4977580576        4.7554763420
 H         3.8085820156       -0.1067735671        5.4359187782
 H         3.3010821470       -1.6470403129        6.2515442021
 H         3.8115819048       -1.5880591545        4.5640081453
 H        -0.8292221703       -4.4206087265        3.5547190815
 H         0.7691465255       -4.3354683140        2.9087463081
 H        -3.2606191124       -5.5287437626       -0.7403331297
 H        -3.9350568026       -4.0406859405       -0.1215098026
 H         1.0724393206       -4.0904969357       -0.1076648475
 H         0.5477671535       -5.6929464032       -0.6619734954
 H         1.0486292132       -5.1376058700        1.0512011965
 H        -0.5977218654       -6.5899408489        1.3956766113
 H        -2.0764269104       -5.9049497187        2.0005641012
 H        -1.8250561138       -6.6567860285        0.3526126884
 H        -3.3605375028       -3.2205137772       -2.8062491213
 H        -3.2245405474       -4.8876849363       -3.0230725262
 H        -7.3193102136       -1.6346034852       -1.7011528261
 H        -5.8449806225       -2.0930643885       -0.9660844178
 H        -4.0698253488       -2.3966594183       -4.9283459872
 H        -5.5684970513       -2.3756710202       -5.8689326345
 H        -4.7234891818       -3.8670491585       -5.5381851563
 H        -7.4907179904       -4.1533669205       -4.8099111805
 H        -7.8382235900       -3.4950942385       -3.2033079212
 H        -7.9347291367       -2.5095049958       -4.4834218857
 H        -6.4857277196        0.2333681600       -0.2389879686
 H        -6.3883979324        0.7720766753       -1.8681538534
 H        -2.7335326637        1.7470375551       -3.1764565593
 H        -2.0301707318        3.2019240082       -2.4719508689
 H        -4.2621296927        3.7988030097       -1.6857993013
 H        -5.8090614127        3.0292956727       -1.4527522557
 H        -4.8068757574        2.4433304950       -2.7395744544
 H        -3.7508104406        1.5794509801        1.4650224741
 H        -3.4824461408        3.0860897457        0.7266355845
 H        -5.1137959213        2.3709505007        0.8218791766
 H        -0.1909138133        2.3887592759       -3.6241391432
 H         0.1579655314        2.1676627587       -1.8920127102
 H         3.7578262446       -1.0776173470       -1.5299092175
 H         3.4216800961        0.6395027012       -2.0887983314
 H         0.6838778467       -1.9006537423       -4.7319698344
 H         0.5348476441       -2.5376709897       -2.9775454387
 H         2.1176144650       -2.2415727007       -3.5797258275
 H         1.6939050651        0.8447484809       -4.8957807868
 H         2.3800550291        1.5022427724       -3.5215543443
 H         2.9407170873       -0.0045837550       -4.2227761996
 H         4.3682565798        0.2516408847        0.2171196768
 H         2.7155327015       -0.2556653427        0.6901113210
 H         3.8206746280        5.4628454336       -2.3847357907
 H         5.3658520481        4.6908270685       -2.0580380954
 H         4.9559667977        3.8354139395        1.4187846113
 H         3.2545147182        4.5678896189        1.0279206642
 H         4.8133075660        5.0896375556        0.2897943794
 H         6.1685842626        3.1212633624       -0.7349878019
 H         5.7810077234        1.8099581802        0.4424670340
 H         5.4018394761        1.7558468990       -1.3262705499
 H         3.1466160028        4.0374067164       -4.3509203871
 H         4.4269287670        5.1316468923       -4.5597180740
 H         4.7310603296        4.3437210891       -8.8465249636
 H         6.3715261029        3.8349313172       -8.4621890700
 H         5.0515261355        2.6900681513       -8.8773721881
 H         7.4837326018        4.1565146159       -6.8191979966
 H         7.6486169355        4.0706705484       -5.0554653139
 H         6.4777210014        5.1052820437       -5.7265495634
 H         7.2028877492        1.5090491093       -5.0579992736
 H         5.6988267080        0.9270645963       -5.9451723142
 H         6.9850927718        1.5862644722       -7.0065588832
 Na       -1.3976243582       -1.2395375373       -0.8520098244
