155

 C        -2.5035318687        3.1444261465        6.2995425581
 C        -2.9507998931        1.7484168130        5.9713011514
 C        -2.9721668611        0.7439617963        7.1785739570
 C        -1.7274588385        0.9038780034        8.1546631162
 C        -0.4419059137       -0.0056077428        7.9846542417
 C        -4.3363228148        0.8716533680        7.9721132004
 C        -2.8937486839       -0.6518771034        6.4363973256
 O        -3.2415636848        1.4945097389        4.7884078163
 O        -1.8552791668        1.6444717919        9.0955879146
 C         0.5390585866        0.2861088279        6.8287023769
 C         0.9916577846       -0.9459682789        6.0116883299
 C         1.6084680221       -0.7795548970        4.6744363764
 C         1.2576872538       -2.0699396917        3.8387946122
 C        -0.1779358905       -2.5168471726        3.9972852188
 O         1.0754788786       -2.0492138737        6.5762668432
 O         2.0183653645       -2.5480095399        2.9955328912
 C         1.2438094575        0.5163048699        3.7415162318
 C         3.2094610408       -0.7468059776        4.9280142270
 C        -0.4503530115       -3.6218247871        2.8945712855
 C        -0.9798904663       -3.2744512394        1.5018242502
 C        -1.1004968326       -4.5270757320        0.3483450620
 C        -1.9094816043       -4.0203762071       -0.8143014429
 C        -3.2875971967       -4.7192098760       -0.9952968837
 C         0.2071388067       -4.8617588414       -0.3701110410
 C        -1.5489733701       -5.8440937333        0.9924799924
 O        -1.2410421186       -2.1419563060        1.2019970043
 O        -1.6007390691       -3.1340769686       -1.5898344331
 C        -3.9644425062       -4.2269305106       -2.3054286779
 C        -5.3155370034       -3.7345750497       -2.0146906646
 C        -6.0248766668       -2.9005994907       -3.1527080448
 C        -6.0290549266       -1.3965007351       -2.7826881927
 C        -6.6675307975       -0.9429407184       -1.4201088310
 O        -5.9924742424       -4.2383631499       -1.0903621780
 O        -5.5632714019       -0.5367198517       -3.5670111526
 C        -5.3786203073       -3.1039222496       -4.5212264374
 C        -7.5604307993       -3.2798311923       -3.2971324053
 C        -5.9436839975        0.2554911002       -0.9033634560
 C        -4.4715797627        0.2319015467       -0.8313452155
 C        -3.6860316221        1.7199868115       -0.7581385702
 C        -2.1188341902        1.6913517257       -1.0973601943
 C        -1.4474849768        2.2314721123       -2.3684674286
 C        -4.4534025121        2.8456839821       -1.6889765672
 C        -3.8375170507        2.1738745802        0.6949794648
 O        -3.7276172189       -0.7042695859       -0.7219669412
 O        -1.3762454868        1.2272484792       -0.2202048494
 C        -0.1003971737        1.7107153431       -2.7713138451
 C        -0.1415589539        0.1588873571       -3.1403730048
 C         1.2133967998       -0.5020741955       -3.4306517243
 C         1.7418273167       -0.7169279679       -2.0033544678
 C         3.1399219316       -0.3291270424       -1.6416411887
 O        -1.1962110652       -0.4347244706       -3.1339312325
 O         0.9537185360       -1.0089962266       -1.0923330140
 C         0.9192212031       -1.9918222532       -3.9949846612
 C         2.1378272432        0.1965964313       -4.4354605279
 C         3.1634768168        0.1951616589       -0.1283248787
 C         2.8377077266        1.8220649415        0.0450494767
 C         4.0206525970        2.8961603607       -0.4749660837
 C         3.6786210961        3.3026540847       -1.8896049756
 C         4.5133023469        4.4878830067       -2.4173047671
 C         4.1343055366        4.1543781671        0.3714704194
 C         5.3975507217        2.1016648927       -0.4298951132
 O         1.8221615340        2.2405120628        0.5191107291
 O         2.8650033576        2.6817116493       -2.5700033731
 C         4.6908122313        4.5134749898       -3.8653558339
 C         5.3003183014        3.2614613287       -4.4623356082
 C         5.8781487969        3.2763325006       -5.9575684746
 C         4.7105107732        3.5832175852       -6.9601878648
 C         5.1157502222        3.8054354813       -8.4802953274
 O         5.3848190964        2.2506241704       -3.8073384433
 O         3.4966025244        3.6108834460       -6.6036643252
 C         7.0760235872        4.1242030031       -6.0535124059
 C         6.2854109169        1.7326115523       -6.3853709552
 H        -2.6305401605        3.4267908288        7.3613937939
 H        -1.4402077477        3.3503949751        6.0743109455
 H        -3.1296398963        3.8457529927        5.6658470984
 H         0.1678863718        0.0115382483        8.9360487269
 H        -0.9217909175       -0.9525103157        7.8015479378
 H        -4.4926802364        1.8906388937        8.4581643112
 H        -4.3587582868        0.1376781208        8.7403851170
 H        -5.1242868960        0.6206997533        7.3083369201
 H        -3.5371859814       -0.5803934623        5.5485927896
 H        -1.9635774580       -0.8140319236        6.0212155196
 H        -3.1528071633       -1.4875737756        7.0269936069
 H         0.1345781468        0.9990355813        6.1234508475
 H         1.4436876428        0.8589393559        7.2319710124
 H        -0.3484845746       -2.7510129754        5.0484830732
 H        -0.8669451656       -1.6772743623        3.9514607380
 H         0.2217285031        0.6703745646        3.8376809976
 H         1.4699088726        0.4033758362        2.7492713851
 H         1.7918236472        1.3446230425        4.2002711122
 H         3.3559426083       -0.6276175412        5.9881715975
 H         3.7804654456       -1.5589677684        4.6845475680
 H         3.6336880805        0.0885974412        4.4424229676
 H        -1.0180443146       -4.4332608160        3.4039446168
 H         0.5536528446       -4.1173531708        2.7768468090
 H        -3.1222518892       -5.8139823508       -0.9031302463
 H        -3.9129434840       -4.5980542285       -0.1232770888
 H         0.6084081298       -3.9982264469       -0.8940065417
 H         0.0131540942       -5.6980823871       -1.0766969189
 H         0.9944796497       -5.3444068577        0.3505875316
 H        -0.7889754736       -6.4238895991        1.4987068882
 H        -2.4581562435       -5.7042516836        1.6144800084
 H        -1.9179008655       -6.4577468156        0.1312511589
 H        -3.5198943137       -3.3503721990       -2.7149632158
 H        -4.0120838096       -4.9167221942       -3.2056293637
 H        -7.7208706798       -0.6834779358       -1.6030864124
 H        -6.6950976292       -1.8256215157       -0.7803514011
 H        -4.5272541084       -2.5677179504       -4.7162915129
 H        -5.9853895895       -2.8450634449       -5.3806933242
 H        -5.3516783979       -4.1843846551       -4.6784787551
 H        -7.7280822331       -4.3278207725       -3.4306320569
 H        -8.1087352098       -2.9354681166       -2.4928534049
 H        -8.0712773183       -2.7694855226       -4.1496566594
 H        -6.3842097721        0.4236134455        0.0803284611
 H        -6.2112176022        1.1151170465       -1.5480620675
 H        -2.1839170532        2.1591023705       -3.2012412870
 H        -1.4677044484        3.2682344077       -2.1566202618
 H        -3.8361047950        3.7794086427       -1.9746021846
 H        -5.4843985293        3.2201338076       -1.3044945114
 H        -4.6760088579        2.3624523443       -2.6540703490
 H        -2.9973817036        1.7810908719        1.2763256428
 H        -3.5881655915        3.2629186023        0.8033189622
 H        -4.7567247508        1.9448213891        1.1428597703
 H         0.0642568096        2.1853506180       -3.7161595238
 H         0.7193393454        1.9101732980       -2.0600522872
 H         3.7781850084       -1.3375989938       -1.6662091965
 H         3.5276338182        0.4206890173       -2.2185851654
 H         0.4333018304       -1.8530573212       -4.9295682055
 H         0.2752735576       -2.5278620268       -3.2272326359
 H         1.8243433760       -2.5171066510       -4.2897638097
 H         1.6007022477        0.5894446271       -5.2015524548
 H         2.6180399119        1.0458897025       -4.0550973791
 H         2.9196424934       -0.3777711404       -4.9109691726
 H         4.1790288824        0.0398917347        0.0879274587
 H         2.5203424226       -0.3289219290        0.5061260061
 H         3.9479809955        5.3739648631       -2.0121699302
 H         5.4829876067        4.5140550025       -1.8932060129
 H         3.9016727738        3.7337690343        1.3587063411
 H         3.3492555875        4.8567201657        0.1528022977
 H         5.1442283040        4.5615461270        0.2393652266
 H         6.1017417876        2.7023601864       -0.9034966386
 H         5.6202697531        1.9328983947        0.6273459231
 H         5.3137522607        1.2787762410       -1.0279649481
 H         3.6858828564        4.6329895763       -4.3520498501
 H         5.3440401711        5.3715799653       -4.1717443633
 H         5.9699286839        4.5095848041       -8.6331564811
 H         5.4932795502        2.9367230150       -8.9931987519
 H         4.3212152921        4.0841655575       -9.0455596323
 H         7.6087769154        4.1143892247       -7.0049909448
 H         7.7855914605        3.9454619590       -5.2366418158
 H         6.7377833281        5.1192952612       -5.8767996822
 H         7.0465262333        1.3467377384       -5.6374359419
 H         5.4829534178        1.0750872690       -6.4719687619
 H         6.8520170147        2.0492630524       -7.3506645977
 Na       -1.4193025726       -0.9781060716       -0.6750042257
