155

 C         8.5933302872       -1.6252758632        6.5677393707
 C         8.5302399613       -1.9610910584        5.0997850362
 C         7.9829047183       -3.3324453853        4.7202783526
 C         6.3245920330       -3.3290459035        4.9852652081
 C         5.6099006230       -4.4337019016        4.1388197245
 C         8.2920856782       -3.4878723805        3.2234385058
 C         8.5759305301       -4.4649301162        5.5322818531
 O         8.7596179790       -1.0698361951        4.2760483760
 O         5.7303845932       -2.5870239762        5.7065441853
 C         4.1179418092       -4.6571810622        4.5607625308
 C         3.0540384992       -3.8636793973        3.7426037561
 C         1.5834141400       -4.2028184062        3.9763170646
 C         0.8724686007       -2.9016230499        4.6571803898
 C         0.2286855718       -1.8589959227        3.6635953306
 O         3.3995002560       -2.9805564504        2.9911895060
 O         0.6380204349       -2.7641792872        5.8015341549
 C         0.9472255863       -4.5012669798        2.6036686632
 C         1.3715040376       -5.3801872633        4.9549690384
 C        -0.2286138915       -0.6164793762        4.3367997762
 C        -0.5621808142        0.5725178339        3.4137573409
 C        -1.3730297309        1.7715724424        4.0994476638
 C        -0.8475869405        3.0561862528        3.3912631045
 C        -0.0111690279        4.1106962690        4.0858583935
 C        -2.9161089048        1.6377680339        3.7260009668
 C        -1.2167047185        1.7238826685        5.6072830933
 O        -0.2585851578        0.5469568136        2.2476024410
 O        -1.0217525713        3.1681973781        2.2117240035
 C         1.3474334445        4.2371408926        3.4392587633
 C         2.2099117280        2.9547699870        3.6797142969
 C         3.7547174298        2.9117661012        3.3048039013
 C         3.9067504161        2.8849023877        1.8680268502
 C         3.0303160369        1.7690140893        1.1126352450
 O         1.6901891346        1.9456921110        4.1478582262
 O         4.4065895253        3.8210555546        1.2888866407
 C         4.3736496009        4.2324182480        4.0009241544
 C         4.3998183566        1.6713839912        4.0233113715
 C         2.9138371873        2.1157578508       -0.3414438752
 C         1.7922601938        1.3664069635       -1.0183798585
 C         1.8388693034        1.1423333784       -2.5870149669
 C         0.4640162327        1.2599786320       -3.3264970851
 C        -0.1718838012        2.4475047976       -4.0510429212
 C         2.7712968856        2.1480249411       -3.3408444564
 C         2.2771262899       -0.3121518264       -2.5928643669
 O         0.8494441800        0.9550252219       -0.3754006713
 O        -0.1424444501        0.1635612532       -3.5059589490
 C        -1.7009117843        2.3901818364       -3.7142906380
 C        -1.9422008337        2.5161731215       -2.1755531917
 C        -3.3504013139        1.8932485022       -1.7191893497
 C        -3.1356489317        0.3438117196       -1.6097121112
 C        -3.6384745164       -0.5387205396       -2.7766923478
 O        -1.1734496474        3.0121691608       -1.4025583863
 O        -2.6230674056       -0.0774026856       -0.5780000869
 C        -3.8786601460        2.5179613490       -0.3757978752
 C        -4.3991001920        2.3780160595       -2.7595220094
 C        -5.0926511801       -0.9918232322       -2.5953607329
 C        -5.5027718085       -2.1379932480       -3.4694550602
 C        -7.0700933679       -2.2388562209       -3.8645877531
 C        -7.5168923811       -0.8771533314       -4.5445575156
 C        -7.6475752792       -0.7567357437       -6.0189147329
 C        -7.4462628880       -3.4704386460       -4.8097082033
 C        -7.9537974697       -2.3455643384       -2.5736491914
 O        -4.7372036417       -3.0701653369       -3.7923849094
 O        -7.6534575338        0.1511513431       -3.8386183613
 C        -6.4548697399       -1.1762603234       -6.8996109904
 C        -6.5803889733       -0.2121693159       -8.1489126845
 C        -5.1937730665        0.1557779319       -8.9594860267
 C        -4.7685141312        1.5221342027       -8.2428221331
 C        -5.1710938677        2.9336046163       -8.7290600539
 O        -7.5199430659        0.4526198763       -8.4745026570
 O        -4.1040773754        1.4692505145       -7.2140182811
 C        -4.0626357024       -0.8486060758       -8.5925395865
 C        -5.4998367257        0.1387934729      -10.5060790611
 H         7.5928653987       -1.4345785745        6.7781371187
 H         9.1701240741       -2.3257495001        7.2183252390
 H         9.0024342682       -0.6427388362        6.6261185313
 H         5.6226294898       -4.2407347664        3.0488581723
 H         6.1693045629       -5.2939792782        4.3076015835
 H         9.3722630237       -3.2664573587        3.1777980617
 H         7.7730008444       -2.6184026265        2.7238693771
 H         7.9871903884       -4.4436811675        2.8210984894
 H         8.3225000482       -4.2730941624        6.5768210554
 H         8.0502161950       -5.4572999336        5.2807525425
 H         9.6816607829       -4.5161665709        5.3991735472
 H         4.0824296763       -5.7921082965        4.3943968444
 H         4.0449700127       -4.5073833487        5.6284146289
 H         0.9395960517       -1.6116813122        2.8842297021
 H        -0.6343417484       -2.4090567020        3.1544324038
 H         1.5506333481       -5.1632725147        1.9518027190
 H         0.8709423705       -3.5666088194        2.1274273950
 H        -0.0463383252       -4.9582342870        2.6786508196
 H         1.3007012612       -4.8985835446        5.9102398650
 H         0.4784417535       -5.9308131604        4.8200452849
 H         2.1318693038       -6.0951376308        4.8737524951
 H         0.4730639049       -0.1665609340        4.9853564049
 H        -1.1143706228       -0.7778154408        4.8656746624
 H        -0.5375641189        5.0688912067        3.8728171352
 H         0.1609454736        3.8220628011        5.0597326084
 H        -3.5672077501        2.3948253068        4.2476803530
 H        -3.2477181094        0.6620112177        4.0351211732
 H        -2.9933861889        1.6742047996        2.5603344320
 H        -1.6588995258        0.7675783596        5.9364052007
 H        -0.1668508895        1.7628268866        5.9308235422
 H        -1.7911899058        2.5136654530        6.1250438128
 H         1.2766546651        4.5436460081        2.3857907100
 H         1.8256826713        5.1233563912        3.8476202921
 H         3.1736382999        0.7194797597        1.1808954561
 H         2.0146835116        2.0957959986        1.4426371437
 H         4.3370584152        4.2125896426        5.1148758179
 H         3.9022664699        5.1608970598        3.6890327680
 H         5.4049775629        4.3050940692        3.7010346284
 H         5.4635811951        1.6958688313        3.9257431334
 H         4.1250403538        1.8281271430        5.0663221910
 H         3.9162117366        0.6915831540        3.7563296167
 H         3.7748914071        2.0788564246       -0.9433022431
 H         2.5700880593        3.1445745685       -0.5037778041
 H         0.2503268833        3.4211726165       -3.9181735501
 H        -0.0612720427        2.3566320740       -5.1744445715
 H         3.7697617743        2.1126072015       -2.9278959582
 H         2.5112296925        3.1919336432       -3.2984466104
 H         2.7779192983        1.7969826752       -4.4346630221
 H         3.2138448639       -0.3970614597       -2.1417380089
 H         1.3609689137       -0.8838088483       -2.2722202036
 H         2.2992755906       -0.6025697288       -3.6509167082
 H        -2.1857515892        3.1053367994       -4.4388663914
 H        -2.0777054456        1.4137732482       -4.0175727975
 H        -3.4085488102        0.1116412128       -3.6378300869
 H        -3.0408314892       -1.5068544103       -2.8185832794
 H        -3.2426053218        2.1540799551        0.4522365130
 H        -4.9766078159        2.4717250849       -0.2609205428
 H        -3.6405450916        3.5951637724       -0.3742857552
 H        -5.4275380635        2.4445408591       -2.2662463668
 H        -4.2192831889        3.3490065097       -3.0406692382
 H        -4.5468101295        1.8249638861       -3.6706198715
 H        -5.8569008169       -0.1751327024       -2.7011894366
 H        -5.1820054973       -1.3379898611       -1.5793863088
 H        -8.4968455001       -1.3940186574       -6.4284270993
 H        -7.9260295021        0.2988271570       -6.1812717000
 H        -6.9849744844       -4.4388650754       -4.4236717536
 H        -6.9882893262       -3.2129181677       -5.7938502476
 H        -8.5219157170       -3.6663633652       -4.8219812025
 H        -8.8482194836       -2.9723768882       -2.5333527697
 H        -7.3366247251       -2.6925834414       -1.8191369949
 H        -8.2505979577       -1.3548892206       -2.2351698498
 H        -5.4855292807       -1.1057168350       -6.4904742335
 H        -6.5457545715       -2.1794574805       -7.3763068172
 H        -5.8187492311        3.4339967597       -7.9861532447
 H        -4.2537948999        3.4606518686       -8.8697244823
 H        -5.6542520692        2.9092684215       -9.6841866824
 H        -4.5671406566       -1.7865958845       -8.6506299242
 H        -3.7663130805       -0.6791836757       -7.5678277847
 H        -3.1297264107       -0.7241261438       -9.1706524705
 H        -4.5975777733       -0.0230385743      -11.1419947162
 H        -6.0006716679       -0.7685625777      -10.7605803453
 H        -6.0044295624        1.0459582298      -10.8309665506
 Na       -1.1594844135        1.5685190385        0.2681400513
