155

 C        -3.6031843204        2.3902817042        6.9240684528
 C        -3.2400944928        0.9162978310        7.0329557195
 C        -2.3711941536        0.4403568371        8.2611507204
 C        -0.9918314620        0.7260328028        7.6713209816
 C        -0.2132408824       -0.3893665297        7.0763291207
 C        -2.6475189710        1.4124837194        9.4971576304
 C        -2.6459155855       -0.9666685970        8.7159172695
 O        -3.4225690073        0.1212117432        6.1351621358
 O        -0.7034856160        1.8924541853        7.5670745429
 C         0.1170346150       -0.0811013083        5.5589176894
 C         1.2605461596       -1.0730285844        5.0539659006
 C         1.4108406223       -1.3190404015        3.5120764455
 C         0.5821537389       -2.6438535399        3.2623750753
 C        -0.8978370762       -2.5243940809        3.6274081350
 O         1.9667163252       -1.6472702610        5.8408039227
 O         1.0996176578       -3.6695303374        2.8565950783
 C         0.8106362127       -0.0577055654        2.7814911987
 C         2.8548350304       -1.5269753493        3.0109139291
 C        -1.5771482331       -3.5589482462        2.6503872630
 C        -1.5486283289       -3.2045857481        1.0945214284
 C        -1.5092895239       -4.3116455681        0.0237310228
 C        -2.8182461104       -4.0053632942       -0.9069332502
 C        -3.9999861089       -4.8481689896       -0.8544065856
 C        -0.2111914021       -4.0281295867       -0.7754030705
 C        -1.5402971880       -5.7614323024        0.6012171630
 O        -1.5558862574       -2.0429866643        0.8190725381
 O        -2.5901920319       -3.2004264147       -1.7689505518
 C        -5.4194529643       -4.2178016711       -1.1859391849
 C        -5.7097138200       -3.2165765644       -0.1263988686
 C        -7.0135189527       -2.3476887358       -0.1418264226
 C        -6.6511507166       -0.9858392974       -0.8562064302
 C        -5.9898611088        0.0999427576        0.0899105896
 O        -5.1688198140       -3.3144620593        0.9663949176
 O        -6.5444227173       -0.9752277479       -2.0720577010
 C        -8.2678077343       -2.9616873033       -0.8224510736
 C        -7.3091060825       -2.0211497237        1.3640537535
 C        -5.2837210597        1.2590669089       -0.6686740427
 C        -3.7616105376        1.1024136163       -0.7305772239
 C        -2.7680880694        2.2772876880       -0.5987880905
 C        -1.4862465549        2.0480122133       -1.4871978797
 C        -1.4162434124        2.6209051787       -2.9601180039
 C        -3.4987826964        3.5837018640       -1.0169853494
 C        -2.3738278400        2.3935561009        0.8807885184
 O        -3.4152674457       -0.0566321666       -0.9787547261
 O        -0.5416405433        1.5227736016       -0.9652459617
 C        -0.1576459292        2.0351955213       -3.5986206585
 C        -0.1278910248        0.5304018830       -3.6876133637
 C         1.1385697939       -0.2306476735       -4.1591522875
 C         1.9858998633       -0.7004998489       -2.9382798529
 C         3.4992290320       -0.3872922381       -2.9881129852
 O        -1.1727213699       -0.1110708708       -3.4238185916
 O         1.3625301833       -1.2388462256       -2.0371792996
 C         0.6910153771       -1.5989543329       -4.8616355172
 C         1.9547674465        0.6469249369       -5.1272563046
 C         4.1729695857       -0.4680370628       -1.6226641839
 C         3.7361289066        0.7839588678       -0.5791066725
 C         4.6336521886        2.1444184463       -0.7649062486
 C         4.0349439727        2.9184181454       -1.9259476583
 C         4.7475750469        3.9374167499       -2.7384761814
 C         4.4109385250        2.9787538825        0.5316105533
 C         6.1105447524        1.7549663824       -0.9655205366
 O         2.7876460864        0.7515565425        0.1365742909
 O         2.8937598160        2.6831566864       -2.2511539301
 C         4.2898941000        3.9391628328       -4.1913369746
 C         5.0724315992        3.0240553096       -5.0427166424
 C         5.5923045634        3.4422526466       -6.4857579226
 C         4.4467097435        3.8336491698       -7.3938895002
 C         4.8178571742        4.4148412115       -8.8520554816
 O         5.3961597516        1.9094757871       -4.7048641330
 O         3.2528364906        3.8216964935       -7.0279370781
 C         6.6367822526        4.5449335433       -6.2854403545
 C         6.2223298437        2.1341341481       -7.1264291932
 H        -4.0765980941        2.8193600962        7.8578300307
 H        -2.7718633473        3.0333580972        6.6456819138
 H        -4.4138083495        2.4964061701        6.1564153317
 H         0.7486736531       -0.3368249173        7.6175977873
 H        -0.8001023263       -1.3714956138        7.1883313424
 H        -2.2533326983        2.3900720496        9.3059735657
 H        -2.2192069019        1.0919317141       10.4416466996
 H        -3.7252646033        1.5106910623        9.6501577531
 H        -3.4107823398       -0.8800472735        9.4465982916
 H        -2.9707062924       -1.5285520757        7.8505056551
 H        -1.8936360959       -1.4743318962        9.2342464909
 H        -0.7095021417       -0.0483084243        4.7803792805
 H         0.4087467868        0.9430985844        5.4713239543
 H        -0.9278517070       -2.8582780629        4.6933995691
 H        -1.3726791750       -1.5684019563        3.5858459963
 H        -0.3106272560        0.0825278266        2.5968186140
 H         1.2213054832       -0.1384488018        1.7756763463
 H         1.2299420531        0.8485354695        3.2724732387
 H         3.0455261058       -2.5519629861        2.7715457413
 H         3.0407760701       -0.9400483498        2.0806570718
 H         3.6084208058       -1.0917756347        3.7096801509
 H        -2.6653047652       -3.8263004980        2.8944779049
 H        -1.0228354777       -4.4998292614        2.8566913850
 H        -3.9667197848       -5.7159382800       -1.4834694596
 H        -4.0497926305       -5.2051177522        0.2037324621
 H        -0.4928731251       -3.4550673987       -1.5957578393
 H         0.3138785961       -4.9980386676       -1.0991478408
 H         0.5383702517       -3.6387042073       -0.0964600329
 H        -0.5839224904       -5.9498049462        1.1632119884
 H        -2.3566298652       -5.8113350060        1.2557841414
 H        -1.7861416273       -6.5279859258       -0.0550737222
 H        -5.2674415374       -3.8024945335       -2.1336718704
 H        -6.2149363304       -4.9517480456       -1.2831896231
 H        -6.7249013559        0.4746594137        0.7945985522
 H        -5.2816667790       -0.5122335335        0.6987507355
 H        -8.1703480338       -2.7875475407       -1.9380259746
 H        -9.0481943869       -2.2357494150       -0.6661064621
 H        -8.5717821591       -3.9321167700       -0.5392870122
 H        -7.5582674855       -2.9430079643        1.9332146959
 H        -6.3958589776       -1.6672660659        1.8774055037
 H        -8.1400228783       -1.3560608040        1.3007345869
 H        -5.6144551059        2.2501226684       -0.2703056565
 H        -5.6624092247        1.3178609674       -1.6941623077
 H        -2.3398328006        2.3407563785       -3.4363781150
 H        -1.3701509630        3.7297054495       -2.7781145494
 H        -2.7661619760        4.4028479759       -1.1249911190
 H        -4.3157396144        3.8581623241       -0.2801887204
 H        -3.9316628442        3.4563481765       -1.9667218692
 H        -1.9941896288        1.4103420460        1.1406032415
 H        -1.5182468849        3.0655693731        0.9555311877
 H        -3.1435877282        2.9313915803        1.5177793239
 H         0.0986277058        2.3791179763       -4.6201763300
 H         0.6920215149        2.3288859151       -3.0230204475
 H         3.9260340617       -1.0478589365       -3.6718488841
 H         3.7387898485        0.6189315241       -3.4293259900
 H        -0.0037522417       -1.4176722687       -5.6407498492
 H         0.1571139671       -2.0497595334       -4.0431719854
 H         1.4711721683       -2.1582554964       -5.2959418131
 H         1.3112635992        0.9027383305       -5.9043069645
 H         2.2633125466        1.5588637214       -4.6601018697
 H         2.7783577210        0.0112930044       -5.4091288359
 H         5.2408073222       -0.4254528155       -1.8286714271
 H         3.7774373345       -1.3524375689       -1.0444405956
 H         4.5932265642        4.8580468158       -2.0864579945
 H         5.8397111407        3.8706004327       -2.8447120039
 H         4.5854019376        2.3857837581        1.4341815861
 H         3.3390959187        3.2618613898        0.6786907386
 H         4.9885122904        3.8889970372        0.4079412708
 H         6.7115676756        2.6891451727       -0.9996568267
 H         6.6392884690        1.2718000922       -0.1580304530
 H         6.3843583936        1.2047026707       -1.8108784984
 H         3.2797754919        3.6490897043       -4.2225858315
 H         4.1595049928        4.9837318617       -4.6176266027
 H         4.4898955580        5.4278953129       -9.1071901182
 H         5.8991722443        4.3315568094       -9.0194163114
 H         4.3744124139        3.7799463488       -9.5558112257
 H         7.0627813954        4.9465742811       -7.2124840931
 H         7.5050982135        4.1529401752       -5.7901028620
 H         6.1837539772        5.4030370479       -5.7724079203
 H         7.1868076546        2.0118960656       -6.5196919884
 H         5.5685417331        1.3087470780       -7.0005528754
 H         6.4407805544        2.3602633893       -8.2416231678
 Na       -1.1094223972       -1.0068617841       -1.1350394187
