155

 C        -3.9710095003        0.7407416491        2.9303212764
 C        -5.3685304976        0.4434803961        2.8542579843
 C        -6.1787773826       -0.2565525248        4.0064385739
 C        -7.6389711761       -0.0901587290        3.3539908301
 C        -8.1501368360        1.3873570576        3.4183438063
 C        -5.7526943438       -1.6866870420        4.0723527488
 C        -6.0654380380        0.4458940128        5.4810349349
 O        -5.9266529224        0.4435691324        1.7358408170
 O        -8.3163147305       -0.9782846662        2.9873164856
 C        -9.7181937464        1.4877298261        3.0341403299
 C       -10.0568206407        2.2082939176        1.6273663156
 C        -9.9074594629        1.5157721025        0.2026820599
 C        -8.4422592202        1.7102918512       -0.3842212251
 C        -8.1080239622        0.8933216037       -1.6013770441
 O       -10.7996127812        3.1827272395        1.7456397137
 O        -7.6782186752        2.4714423395        0.1940781639
 C       -10.3345913789       -0.0102439961        0.4163364329
 C       -10.8292346854        2.2965725839       -0.8744163345
 C        -8.0316271188        1.7703431522       -2.9023583765
 C        -6.5533934154        2.4663955069       -3.0943723905
 C        -5.8178496323        2.3404402388       -4.5908288699
 C        -5.6169373006        0.8410704916       -5.1933515570
 C        -4.3246521936        0.3596851048       -5.7823060186
 C        -6.7298065167        3.1794169348       -5.5914945160
 C        -4.4814325550        3.1144190229       -4.4074816971
 O        -5.8493230663        2.8261876108       -2.1667142156
 O        -6.6115421941        0.0826696032       -5.3532511999
 C        -3.4913251748       -0.8133250071       -5.2594793663
 C        -3.2267458120       -0.6483513875       -3.6661219512
 C        -2.8014560904       -1.8642730821       -2.9024482327
 C        -2.6617557486       -1.0997522204       -1.4402706472
 C        -1.3493147280       -0.3180948395       -1.4045003292
 O        -3.5437479362        0.4220995808       -3.1519155194
 O        -3.3412517411       -1.3135654799       -0.4942638897
 C        -4.1100832639       -2.8379687528       -2.8360780242
 C        -1.5528735297       -2.6264027867       -3.4809663131
 C        -1.3265048217        0.6058586962       -0.0732378352
 C        -1.8020322648        2.0572468138       -0.3420435697
 C        -0.7375793826        3.1968759382       -0.3982430506
 C         0.6479923967        2.6414185218        0.3171566098
 C         2.0353376018        2.7625670120       -0.5054853208
 C        -0.5290105350        3.4039100640       -1.9149107868
 C        -1.4220157191        4.5852653303        0.0735627314
 O        -2.9654462279        2.3468257287       -0.4704840984
 O         0.6290362360        2.2787571920        1.4121748732
 C         3.0063801551        1.7528420353        0.1388763755
 C         2.7842133508        0.3671814434       -0.5339434734
 C         3.9513105085       -0.7454501552       -0.3098825100
 C         4.8504965340       -0.5035001313        1.0619010887
 C         6.4325716893       -0.2445707502        0.9408729094
 O         1.8747484559        0.2223263486       -1.3552894568
 O         4.1277076194       -0.5175841002        2.0233214909
 C         3.2164846984       -2.0649240288        0.0086419895
 C         4.6323900806       -0.9279731877       -1.7497708399
 C         6.9781403907       -0.1978712253        2.2937067239
 C         7.8504089777       -1.4771227286        2.6217249654
 C         9.1841378467       -1.2410624600        3.4293398013
 C        10.1799405651       -0.5117431953        2.3619283058
 C        11.5775392809       -1.0816894911        1.8014857898
 C         8.8826393243       -0.4445138382        4.6119976866
 C         9.8510140847       -2.6024574616        3.7540780288
 O         7.3820263594       -2.5613425458        2.3042393837
 O         9.6411714125        0.4434670879        1.8158099977
 C        11.2978852448       -2.0118287102        0.6453914004
 C        11.9948585514       -3.4559473091        0.7792652857
 C        11.6920885534       -4.4280411188       -0.5611120223
 C        10.2010721558       -4.2606547568       -0.9594141502
 C         9.1725522908       -4.6762067218       -0.0145515887
 O        12.7561287093       -3.6666507953        1.6672422324
 O         9.8773493623       -3.9690048408       -2.1274788751
 C        12.6029295960       -3.7061679816       -1.6653056742
 C        12.0926925945       -5.9315006497       -0.4020704406
 H        -3.4022837940        0.1839616430        2.1559095345
 H        -3.6896747661        1.7107225036        2.8777226205
 H        -3.6580582783        0.4576896652        3.8772702155
 H        -8.0832091722        1.7810803626        4.4906437875
 H        -7.5117503485        2.1312581236        2.9400591961
 H        -5.9653540234       -2.1211080734        3.1306958175
 H        -6.2798420966       -2.1730892504        4.9097947455
 H        -4.6642924662       -1.6463362884        4.2733984183
 H        -5.5817968127       -0.2763283230        6.0954728869
 H        -5.6347856743        1.4572240043        5.4275814318
 H        -7.0112138810        0.5645891142        6.0012262464
 H       -10.0602181856        0.5136750472        2.9963349024
 H       -10.2853125078        1.8498866373        3.8628220280
 H        -7.0821339007        0.4196325086       -1.3012766185
 H        -8.6904019140        0.0373026290       -1.8186317583
 H       -10.7410918519       -0.2928991109        1.4430573765
 H        -9.6067807481       -0.7780984687        0.1701331037
 H       -11.2799614710       -0.2919399563       -0.2753902780
 H       -11.8916875613        2.1465336208       -0.5815713184
 H       -10.6258028227        3.3909140622       -0.9359995088
 H       -10.6319809561        1.7776588990       -1.8496869296
 H        -8.6939696180        2.6258347992       -2.7785494903
 H        -8.3585280670        1.2362920929       -3.7939160220
 H        -4.5825908210        0.3460118077       -6.8022459838
 H        -3.6671860703        1.2616283209       -5.7901528727
 H        -7.5291577541        2.4230639733       -5.8631223250
 H        -6.1763822520        3.5184161550       -6.5036155265
 H        -7.2395419689        4.1423917407       -5.1918799429
 H        -4.6965457182        4.0494362966       -3.7968425708
 H        -3.8344965223        2.5193235033       -3.8212804521
 H        -4.1498756064        3.4108801964       -5.4076270056
 H        -4.0215535481       -1.7612087734       -5.4047718126
 H        -2.6076950089       -0.9886025607       -5.8999733862
 H        -0.8284193693       -1.2054628496       -1.0696402705
 H        -0.9270998890       -0.0149905867       -2.3299478238
 H        -3.9260854805       -3.2143682690       -3.8534872248
 H        -4.8973545524       -2.1097318427       -2.7366977401
 H        -4.0345759991       -3.7000180036       -2.2483046566
 H        -2.0673757032       -3.2301638302       -4.2030769479
 H        -0.7373536490       -2.1022143566       -4.0610277181
 H        -0.9273167040       -3.3437148690       -2.8163648863
 H        -0.2360866108        0.4886893885        0.2433676789
 H        -1.9910832754        0.1665653878        0.6949905764
 H         2.0168847945        2.7763620103       -1.5858435423
 H         2.3311352133        3.7806731842       -0.2395480080
 H        -1.5596805668        3.6836072052       -2.3106360568
 H        -0.2633035551        2.5951272276       -2.5493084607
 H         0.1519441388        4.3342730505       -2.1076466251
 H        -2.4568320314        4.4590307539        0.0762916717
 H        -1.0677332765        4.7395879936        1.1144409674
 H        -1.1557279462        5.4718577775       -0.5534328239
 H         4.0501603783        1.9293096798       -0.1906565348
 H         3.2153630219        1.7060881745        1.2018065821
 H         6.6523954915       -1.1893348231        0.4287890138
 H         6.4269191127        0.6260544244        0.3666258118
 H         2.3460527052       -2.1427988208       -0.7232484158
 H         2.9138171640       -2.0007227698        1.1539431191
 H         3.7147841827       -2.9761914726       -0.0524616497
 H         4.1294236727       -1.5151393226       -2.5075105182
 H         4.7748891631        0.0793529744       -1.9946795766
 H         5.5845973112       -1.4115396149       -1.6888246620
 H         6.2743540560       -0.0674302245        3.0569731901
 H         7.7653528266        0.5563085171        2.2716675401
 H        12.2478419634       -0.2641116156        1.5955088578
 H        12.1343611051       -1.6688182009        2.5452313387
 H         9.5068684495        0.3195106363        4.7844314206
 H         8.9996120584       -1.0928932037        5.5650415168
 H         7.9334203494        0.0703508305        4.5693906434
 H        10.3734584554       -2.9117678007        2.9423588731
 H        10.5346079017       -2.5320483479        4.6441804572
 H         9.0548545451       -3.2996147935        4.1047469689
 H        10.2908219064       -2.3320835148        0.7332959221
 H        11.3285552171       -1.5864124954       -0.4002421100
 H         8.2402659870       -4.2411388964       -0.2678255167
 H         8.9132328438       -5.7368388635       -0.0136975753
 H         9.5857708783       -4.5817008275        0.9933151925
 H        12.8883436949       -4.4909244508       -2.3885092198
 H        13.4943373774       -3.2505125979       -1.2733445722
 H        12.0254474268       -2.9808925961       -2.2489566220
 H        12.1420505206       -6.2280901669        0.6332710285
 H        11.4908377660       -6.3788867821       -1.1521689590
 H        13.0903919377       -6.0251022411       -0.8184779373
 Na       -5.4486198162        1.7997850590       -0.1465368055
