155

 C        -4.6644644535       -0.7449325619        3.5927845560
 C        -5.6243433401        0.4506681168        3.5168126862
 C        -6.6171494574        0.6275045102        4.7266253615
 C        -8.0132999638        1.0750764350        4.0778958760
 C        -8.4557744509        2.4288189186        4.0669748772
 C        -6.7935430876       -0.6887633080        5.4488197387
 C        -6.0800556605        1.8325473781        5.6357430613
 O        -5.5354468081        1.1525806437        2.5476827768
 O        -8.6756730876        0.1637925661        3.5904809457
 C        -9.7792702178        2.7736083744        3.2616008768
 C        -9.5699405288        2.9589361143        1.6768906893
 C        -9.5029293904        1.9091405720        0.4841184959
 C        -7.9804713473        2.2349183781       -0.0548112524
 C        -7.7349955282        1.7263809958       -1.4752910898
 O        -9.7282196705        4.0958262244        1.3368206098
 O        -7.1125822135        2.5082063318        0.7231577323
 C        -9.7970650491        0.2662553016        0.7972386565
 C       -10.6540188191        2.4214656041       -0.4443065942
 C        -6.9223416843        2.7080098893       -2.3230312072
 C        -5.7818948525        2.0335008871       -2.9897192874
 C        -6.1271459931        1.6365215158       -4.6093086242
 C        -6.2122390748        0.0328072932       -4.4433190950
 C        -5.4880516306       -1.1154742136       -5.4232994390
 C        -7.3063277824        2.3951153537       -5.2165239922
 C        -4.8743167540        2.0907805982       -5.5026073924
 O        -4.6916426659        1.9159224012       -2.5181805308
 O        -6.9054495675       -0.3409937193       -3.5472526710
 C        -4.6236624551       -1.9239886245       -4.3624381561
 C        -3.4176260050       -1.2857398207       -3.7689269889
 C        -2.6203478357       -1.8919700396       -2.4867679028
 C        -2.8528423795       -1.0351501044       -1.2197167950
 C        -2.1402289874        0.3059488520       -1.0764081972
 O        -3.0509001518       -0.2835988138       -4.3303469174
 O        -3.8449153681       -1.4162008382       -0.6374748224
 C        -3.0348955982       -3.3059166833       -2.3488632883
 C        -1.1482184951       -1.8415148709       -2.9158665425
 C        -2.5408098242        0.9322306601        0.2803451183
 C        -2.4316147694        2.4844483849        0.3523215721
 C        -0.9928173992        3.4105030046        0.0900133395
 C         0.3381687987        2.4649115577        0.2982706988
 C         1.6609730190        2.6461878617       -0.5162743738
 C        -1.1159295659        3.9858536612       -1.3515419569
 C        -1.0327491934        4.5339783225        1.1490857300
 O        -3.4599939054        3.1705131053        0.5320927486
 O         0.3124851180        1.6474807874        1.2751036496
 C         2.7052193814        1.6154208895       -0.1083705003
 C         2.6091801521        0.2815653124       -0.7554986999
 C         3.7967174461       -0.7921920688       -0.5062033145
 C         4.9776854486       -0.3800109078        0.4644854872
 C         6.2659711601       -1.1528098974        0.3921218882
 O         1.8673998195        0.1021816242       -1.7188337933
 O         4.8583150129        0.4897000042        1.3074832876
 C         3.1013098325       -1.8855703210        0.2915183130
 C         4.4031679426       -1.1070456434       -1.8083191227
 C         7.0626438154       -0.7204508900        1.6487908988
 C         8.0365778467       -1.8786886483        2.0569364537
 C         9.3628098198       -1.6689362792        2.9380433376
 C        10.3489399736       -1.2670550655        1.7568486273
 C        11.9109796845       -1.7426040927        1.6748584744
 C         9.5353744614       -0.3355788317        3.7811947792
 C         9.9863065656       -2.8635154055        3.6426761710
 O         7.8120095651       -3.0143897817        1.7621649617
 O         9.9447102205       -0.6553226740        0.7980824212
 C        12.3295912604       -2.2529923960        0.1904438953
 C        11.4918687185       -3.4130802807       -0.2067327649
 C        11.9363571214       -4.2903262862       -1.4458685147
 C        10.5512485598       -4.3462235485       -2.2764264519
 C        10.0992988712       -5.6412724817       -2.7410703137
 O        10.5621904551       -3.7773601733        0.4876264720
 O        10.0267154892       -3.2755472372       -2.4819059986
 C        13.1243072059       -3.7058088263       -2.3287602412
 C        12.2982017892       -5.6970022414       -0.8125003364
 H        -4.4965357300       -1.1347585191        4.5863343948
 H        -4.9924541376       -1.5045666609        2.7847041355
 H        -3.6092062465       -0.3473836965        3.3424671049
 H        -8.7243418021        2.6541284409        5.1155668647
 H        -7.6801550354        3.1306850042        3.7657614091
 H        -7.5606866797       -1.1774965046        4.8687501247
 H        -7.2797086558       -0.4744929855        6.3296886580
 H        -5.9738445774       -1.2987983940        5.6083747805
 H        -5.0462903838        1.4379690671        5.9734141716
 H        -5.8784149249        2.7931223677        5.1141142684
 H        -6.7508552123        1.8861867261        6.4995769314
 H       -10.5300503285        1.9708613068        3.4486428324
 H       -10.0981526785        3.8080225691        3.6474786663
 H        -7.0341113738        0.9349316727       -1.4438151206
 H        -8.6923136501        1.4532332470       -1.9168063836
 H       -10.8193162207        0.0225439259        0.7248395222
 H        -9.5860649627        0.2349140824        1.8072877120
 H        -9.2430621402       -0.3404000829        0.1704667566
 H       -11.6321340574        2.0992307266        0.0212275343
 H       -10.5736860299        3.5416578967       -0.5039080419
 H       -10.6406455741        1.9157056506       -1.4133805064
 H        -6.4438637553        3.4322011693       -1.6196939578
 H        -7.3855430620        3.3522426042       -3.0960915521
 H        -6.1913060715       -1.9635551016       -5.8194127683
 H        -4.8224969824       -0.8116599215       -6.2438342974
 H        -8.2564339979        2.0992300404       -4.8954161483
 H        -7.1530522755        2.3314755073       -6.2666667112
 H        -7.1347342696        3.4036469657       -5.0512328277
 H        -4.7199790859        3.1403897594       -5.2636836366
 H        -3.9869685279        1.5084723454       -5.1740420650
 H        -5.0019239927        1.7206078544       -6.4807835986
 H        -5.2248806411       -2.0251424633       -3.5016674295
 H        -4.5319734626       -2.8996002934       -4.8456541090
 H        -1.0527640628        0.3531113575       -1.2356664336
 H        -2.4501073260        1.0570262181       -1.9192125862
 H        -2.8723074381       -3.8519756764       -3.2832902679
 H        -4.0463573077       -3.2814860366       -1.9695703991
 H        -2.6911100138       -3.6776311235       -1.3350029962
 H        -0.8594047228       -2.7110722364       -3.5326755294
 H        -0.8058065553       -0.8817530892       -3.2280696602
 H        -0.5246476437       -2.0049328956       -2.1396375729
 H        -2.0383382071        0.5378400244        1.1598201963
 H        -3.6063632750        0.6749034235        0.4090293248
 H         1.3118728328        2.5557615939       -1.5804645537
 H         1.9752656314        3.7069145653       -0.2312585406
 H        -2.0832795064        4.3330571090       -1.5483690085
 H        -0.8331243170        3.1251084527       -2.0390394050
 H        -0.3995386963        4.6797862052       -1.5876147356
 H        -0.6087163597        4.2003265140        2.1103374346
 H        -0.5410467962        5.3093011481        0.6033649017
 H        -2.0438314190        4.8244132635        1.2203900692
 H         3.6991117808        1.9281203958       -0.4832312898
 H         2.6891934440        1.5068814190        0.9527436975
 H         6.2188757003       -2.2812688707        0.3616602626
 H         6.7786213781       -0.9630719106       -0.5604265226
 H         2.1549180250       -2.0621988874       -0.2075764907
 H         2.6700992863       -1.4908468801        1.2670422182
 H         3.6106903267       -2.9699424928        0.2412207510
 H         3.5772044534       -1.4846757743       -2.4758613635
 H         5.0128406194       -0.2804894862       -2.2262899661
 H         5.0890419007       -2.0107270351       -1.7653597563
 H         6.4498703018       -0.4778231602        2.5942665818
 H         7.7366998533        0.1728827557        1.5420051926
 H        12.3308688342       -0.6912277770        1.8173494870
 H        12.1014150247       -2.5422568710        2.4401023095
 H        10.5336160040        0.1968295751        3.5084121726
 H         9.4578837675       -0.5161760862        4.9249539400
 H         8.6832153301        0.3399327566        3.6232641404
 H         9.6657912496       -2.8719627658        4.7411621387
 H         9.8319538890       -3.7711892491        3.0500256909
 H        10.9860802513       -2.7415112204        3.8167258059
 H        12.0154889692       -1.4053638051       -0.5450449202
 H        13.3128064497       -2.2053693560        0.1465058409
 H         9.0320963469       -5.7109701603       -2.7508931227
 H        10.4819391704       -5.8266469003       -3.7334902962
 H        10.3513994464       -6.3870309841       -2.0725877457
 H        13.3782735064       -4.1849071672       -3.2199351580
 H        14.0596493934       -3.7279046366       -1.7450206545
 H        13.0028590762       -2.6733717039       -2.6312577855
 H        11.5828873892       -5.8805288749       -0.0598109486
 H        12.2826232105       -6.4646338109       -1.5787191304
 H        13.2388602478       -5.5801299394       -0.3157035564
 Na       -5.1087439593        1.5712519859       -0.0162224053
