155

 C        -6.9638987882       -0.4041632256        2.7612904114
 C        -5.9918559753        0.6678363862        3.2921204289
 C        -6.1801046990        1.2553494656        4.6859935904
 C        -7.5887093724        2.0246673283        4.5477386094
 C        -7.7680692391        3.0877492736        3.3680295663
 C        -6.2708948954        0.2162375329        5.7517547317
 C        -5.0012119027        2.2424961426        5.0581715085
 O        -5.1594388914        1.1698291041        2.5237415438
 O        -8.5557538611        1.8020001402        5.2013133283
 C        -9.2069057681        3.5725798502        3.0947628341
 C        -9.1920698702        3.7593739006        1.5815124880
 C       -10.0410351098        2.7956235336        0.6369822424
 C        -8.8081133273        2.3894329428       -0.3655649332
 C        -8.5964788537        3.2414532860       -1.6879580633
 O        -8.2575672383        4.5379000142        1.2800395956
 O        -8.0314824166        1.4824798536       -0.0324005570
 C       -10.5477929978        1.5772413590        1.4596635445
 C       -11.1475678490        3.5204081868       -0.0658319716
 C        -8.1755831715        2.2905394661       -2.8583518725
 C        -6.7344980661        1.8848673541       -2.8513735724
 C        -6.3854993794        0.9007257052       -4.0085308472
 C        -6.8349199460       -0.4809443333       -3.4049005112
 C        -5.9585936275       -1.8378834340       -3.3379109647
 C        -7.2711325558        1.0466333579       -5.2848650703
 C        -4.8961933283        0.8383339147       -4.5585181369
 O        -5.9204190904        2.2289270555       -1.9853302029
 O        -7.9095529457       -0.6314314031       -2.9208405954
 C        -4.9269784034       -1.9945027776       -2.1640916582
 C        -3.4083556680       -1.8038169546       -2.7879298425
 C        -2.2878698071       -1.8415705380       -1.6494539806
 C        -2.4608307043       -0.7864565165       -0.6053863814
 C        -1.1274529661       -0.0795114913       -0.0132582627
 O        -3.1871997795       -1.4182713880       -3.9120966667
 O        -3.5417083220       -0.2984224415       -0.3611430260
 C        -2.3193993446       -3.1288188677       -0.7952661881
 C        -0.8415717326       -1.7641083150       -2.3283015105
 C        -1.3980046314        0.7229879320        1.2446158546
 C        -1.8133935823        2.1388501293        0.9032164361
 C        -0.5756887285        3.1773484682        0.5401859459
 C         0.8785842829        2.7298860620        0.8469263013
 C         2.0973207836        2.7691668298       -0.1121544572
 C        -0.9580630149        3.5253282686       -0.8806368648
 C        -0.6851415621        4.4103349235        1.5436818588
 O        -2.9438565303        2.4927233439        0.9616394324
 O         1.0090921343        2.4704136845        2.0499697866
 C         3.0944219301        1.6098436394       -0.1640731822
 C         2.5689831905        0.1724598003       -0.7748076262
 C         3.6782277768       -1.1289486883       -0.8508070220
 C         5.0377586015       -0.5859809259       -0.2163349023
 C         5.6530017961       -1.2282378356        1.0903283839
 O         1.4005364372        0.0567272904       -1.1517215339
 O         5.6101627353        0.3556959888       -0.6971258605
 C         2.9505742657       -2.4116235650       -0.2803212131
 C         3.9104025999       -1.4423878898       -2.4033731018
 C         7.1698674586       -0.8420063043        1.2087639116
 C         7.8291125244       -2.0892213013        1.8695384520
 C         9.4010796037       -1.9497293292        2.2762759446
 C        10.1975390699       -1.4237085737        0.9946976848
 C        11.6287129888       -1.9820627191        0.6347289635
 C         9.6121116354       -0.9466176910        3.4326973850
 C         9.8812425703       -3.4074184475        2.7572242401
 O         7.2748110124       -3.1549682154        2.1011521099
 O         9.7108932081       -0.5306696099        0.3072645686
 C        11.8729671403       -2.4008213905       -0.8701295884
 C        11.3056408876       -3.6725888750       -1.2650196285
 C        11.9464932677       -4.4139929131       -2.4939813576
 C        11.0316449328       -4.3801214774       -3.7744507375
 C        11.2165312626       -5.3920523471       -4.9555677812
 O        10.3295236239       -4.2047392065       -0.7139749128
 O        10.2469219812       -3.5164103825       -3.9651453900
 C        13.2398782908       -3.7139000025       -3.0282753587
 C        12.2875716330       -5.8674212086       -2.0068956166
 H        -7.6277580186       -0.7929615372        3.5441426548
 H        -7.5108801552        0.0584485046        1.9496923291
 H        -6.3733727509       -1.2667980148        2.5524302500
 H        -7.0860275326        3.9387086333        3.3207983027
 H        -7.4765042856        2.6366314788        2.4431534083
 H        -7.2553837508       -0.2865947937        5.7418842600
 H        -6.2601583558        0.5610511002        6.7468945655
 H        -5.4870288267       -0.5289021325        5.7340269066
 H        -4.0116753960        1.6904320828        5.0857539524
 H        -4.7692485605        2.9071314595        4.2359995173
 H        -5.2487307263        2.7530026127        5.9530707555
 H        -9.9246369871        2.8375970235        3.4930018063
 H        -9.4046110760        4.5350082996        3.6445920871
 H        -9.6093274891        3.6686491142       -1.9165237115
 H        -7.9909773506        4.0737329469       -1.5820296986
 H       -11.4208927783        1.8494827648        1.9120956273
 H        -9.8571167355        1.3240767456        2.1936926374
 H       -10.7105228481        0.6899875623        0.8271868397
 H       -11.9369753306        3.6791967178        0.6477420362
 H       -11.0241188573        4.4117648792       -0.6168194177
 H       -11.6238824041        2.7840328496       -0.6252513871
 H        -8.1780627703        2.9287403981       -3.7876320000
 H        -8.8031615932        1.3783710662       -3.0676534431
 H        -6.6102429920       -2.6714183659       -3.3985267146
 H        -5.4371853605       -1.8601404673       -4.2814974523
 H        -8.3131007782        0.9181698007       -5.1068806897
 H        -6.7693577702        0.2885568275       -5.9698944433
 H        -7.1641468338        1.9555842034       -5.9604755050
 H        -4.6483740977        1.7717797896       -5.1706788480
 H        -4.3388921060        0.7719321570       -3.6090837418
 H        -4.6480361796       -0.0523067991       -5.1328299721
 H        -5.0876694836       -1.4464604847       -1.1913337699
 H        -4.9082539039       -3.0507126300       -1.9227872195
 H        -0.4537077291       -0.9144981220        0.4219361840
 H        -0.5966403971        0.4956058995       -0.8301334153
 H        -2.7242367741       -4.0997300616       -1.2447051263
 H        -3.0212240456       -2.8709740877       -0.0082282782
 H        -1.2402513461       -3.2780139451       -0.2663675557
 H        -0.5682527071       -2.7643706528       -2.7164408656
 H        -0.7269047413       -1.0864809873       -3.0637027401
 H        -0.0435346696       -1.6061483327       -1.6066666707
 H        -0.5073490904        0.6243337318        1.9090471547
 H        -2.1724122149        0.2045818870        1.8036737482
 H         1.6222708915        2.9223486460       -1.1061393369
 H         2.7207450467        3.6551014727       -0.0275558857
 H        -1.7996188342        4.2022584799       -0.9672472033
 H        -1.0321082690        2.4823602812       -1.3643859280
 H        -0.1419386387        3.8440250072       -1.4907423619
 H        -0.6365938427        3.9246122196        2.5328046070
 H         0.0865697409        5.1393352849        1.3272209807
 H        -1.6479407479        4.7647266439        1.3290944257
 H         3.9665560799        1.8562277981       -0.7393815560
 H         3.4382270409        1.3915603905        0.8597153453
 H         5.0297931853       -0.9567921683        1.9913352057
 H         5.6976678739       -2.3027665011        0.9612040090
 H         2.1122746295       -2.5738668779       -1.0683846562
 H         2.3041323421       -2.0633692779        0.7052907398
 H         3.4247768873       -3.3749486460       -0.2046770392
 H         3.1898951607       -1.2054428464       -3.1800986567
 H         4.8067622365       -0.9392362159       -2.6878685456
 H         4.2765732241       -2.4650781196       -2.4361789658
 H         7.2296521885        0.0465679469        1.8271289341
 H         7.4728829662       -0.7993148731        0.1167872754
 H        12.2525785768       -1.0132966748        0.8305861759
 H        12.0610121283       -2.7399121689        1.3604479809
 H        10.5834391616       -1.0028433297        3.8504483747
 H         8.9158189289       -1.1412466103        4.3545220387
 H         9.3295186648        0.1339642993        3.0189329639
 H         9.1894706376       -3.8851351691        3.5016077152
 H         9.9508751076       -4.1060902187        1.8849054067
 H        10.6956801351       -3.4403670891        3.3630781057
 H        11.6334983208       -1.3964679704       -1.5486522559
 H        12.9527415425       -2.4024337607       -0.9931643208
 H        11.4416099464       -6.4617961452       -4.6838634318
 H        10.2768673495       -5.5056706841       -5.5309379247
 H        11.9142556973       -5.0522311831       -5.6960699443
 H        13.7036386393       -4.3708719867       -3.7079297114
 H        14.0051838876       -3.7377204029       -2.2244255576
 H        13.2071285895       -2.7648988103       -3.5832337011
 H        11.5051010976       -6.5977033322       -1.8710275641
 H        12.8920147697       -6.3372979060       -2.8147444033
 H        12.8588391521       -5.6704002391       -1.0764032318
 Na       -5.0394052714        1.5411204105        0.4384239612
