155

 C        -6.1898981268       -0.7067590902        3.5111047696
 C        -5.7743431260        0.7730462296        3.6068986169
 C        -6.1533075711        1.6272267388        4.8027555489
 C        -7.2844466657        2.8132802595        4.6326431145
 C        -7.0311090540        3.8523933954        3.4917500292
 C        -6.6675317345        0.7396270681        5.8965082805
 C        -4.8590756875        2.4606377014        5.3211286121
 O        -5.2873749332        1.3099421260        2.6067166057
 O        -8.0832494560        2.8352278781        5.5280687956
 C        -8.2327367432        4.7866353473        3.1610854486
 C        -8.8299823783        4.8244594284        1.7389338655
 C        -9.1530691595        3.3997008807        0.8547947228
 C        -7.9046334708        3.0291008849        0.0809721628
 C        -7.9682149098        3.2745807466       -1.3915189056
 O        -9.4445958865        5.8449913935        1.3717613559
 O        -6.8869178963        2.7269401112        0.7068516387
 C        -9.5052155907        2.3305452094        1.8878167194
 C       -10.4152977886        3.5992409055       -0.0337745787
 C        -7.9320652903        2.0968176317       -2.3130223264
 C        -6.5125758950        1.3451877065       -2.7326491982
 C        -6.7126110020        0.2978823677       -3.8331445689
 C        -7.0217511300       -1.1476506416       -3.2513119942
 C        -5.8562037481       -2.3182630919       -3.1141351797
 C        -7.7508969132        0.8374013998       -4.8347389851
 C        -5.3022599929        0.3285163499       -4.5132814924
 O        -5.4967002187        1.3429945534       -2.0332974376
 O        -8.1052526388       -1.3096271811       -2.7970975272
 C        -5.2435966455       -2.0965651693       -1.7301103152
 C        -3.7279674244       -2.1860035177       -1.8424859059
 C        -2.8448021917       -2.0317742503       -0.5874337763
 C        -3.3016566597       -0.9640928271        0.4891915580
 C        -2.1966482928       -0.2523058406        1.3182387678
 O        -3.1787516290       -2.5763197378       -2.8393626751
 O        -4.3470591119       -0.3842847994        0.5081692521
 C        -2.6504298644       -3.4723659262        0.1306848440
 C        -1.3863078320       -1.5580793768       -1.1266642265
 C        -2.3947265835        1.2248605889        1.7386577460
 C        -1.9215416246        2.0909116628        0.5421887350
 C        -0.6330888186        3.0168057003        0.6410186290
 C         0.6550370074        2.1335713405        0.5988755543
 C         1.9578674736        2.4932553033       -0.0128506862
 C        -0.8696907922        4.0596757663       -0.5983834583
 C        -0.7747800191        3.7467242790        2.0984177498
 O        -2.5041837406        2.0871160422       -0.5296474136
 O         0.5564602295        1.0513786099        1.2068136915
 C         2.9366951798        1.2783632760        0.0571472877
 C         2.5608941011        0.3196740631       -0.9626235649
 C         3.5492519206       -0.9984016224       -1.2646035141
 C         4.9218274949       -0.7858682316       -0.4550466977
 C         5.4750991762       -1.7483317187        0.6119486613
 O         1.5418613158        0.5215906322       -1.6703610454
 O         5.4681977399        0.2534603530       -0.7074065352
 C         2.8089575888       -2.2508375871       -0.7735528476
 C         3.9822797055       -1.1422033310       -2.7684961508
 C         6.7580568330       -1.1856496378        1.1146880356
 C         7.7127558302       -2.2422213849        1.6718038412
 C         9.2756224312       -1.8035703730        1.8048914130
 C         9.8694857247       -1.5260345793        0.3420033831
 C        11.1529217173       -2.2865712650       -0.1011786553
 C         9.6031732351       -0.5039374228        2.5339427775
 C         9.9688770925       -3.0608342757        2.4869760861
 O         7.3993073420       -3.3789254627        1.7229521683
 O         9.3517433989       -0.6943995268       -0.4318421354
 C        11.2029473498       -2.6505631794       -1.7007787917
 C        11.4769502796       -4.2041926638       -1.9520190834
 C        12.0508369302       -4.6325465084       -3.3957784571
 C        11.0550756351       -4.0549419713       -4.4905425907
 C        11.2415557308       -4.4847043730       -5.9290110984
 O        11.4197030225       -5.0916835691       -1.0797645716
 O        10.1932513094       -3.2500480083       -4.1996704601
 C        13.5569157417       -4.1224888847       -3.3589557936
 C        12.0146962130       -6.1403819429       -3.4083409105
 H        -6.0465752234       -1.2043232609        4.4892217536
 H        -7.1871609966       -0.7388475654        3.1100562932
 H        -5.4884073715       -1.1766299330        2.8201519737
 H        -6.2957478957        4.5800283499        3.9203014412
 H        -6.5915267453        3.2735938233        2.5926493742
 H        -7.7840202404        0.6344233201        6.0048084501
 H        -6.2711974511        1.0778775212        6.8390586512
 H        -6.4628750844       -0.3224301238        5.8422716984
 H        -4.0318214420        1.8293829740        5.6661791758
 H        -4.5243177704        3.1496902000        4.5415813959
 H        -5.1934337396        3.1236783305        6.0877079766
 H        -8.9126025842        4.7390172518        3.9249288749
 H        -7.8040531690        5.8101659032        3.2550136792
 H        -8.7448774071        4.0049140206       -1.6111697765
 H        -7.0705388062        3.7746578549       -1.5606916479
 H        -9.5276226244        1.4278667314        1.4008636458
 H       -10.3631094806        2.4649747649        2.4668985850
 H        -8.6844053421        2.2181423582        2.5951993987
 H       -11.2844281615        3.6860390086        0.5708692944
 H       -10.5333523703        4.4033777700       -0.7261990328
 H       -10.4943411461        2.6584086764       -0.5791447190
 H        -8.6564780295        2.2300510080       -3.1561146614
 H        -8.3471528125        1.2589127486       -1.6741196581
 H        -6.3317792748       -3.2569409174       -3.0840399062
 H        -5.3105164619       -2.3736313424       -4.0067029241
 H        -8.7974986434        0.5851308645       -4.6440853233
 H        -7.5974300461        0.4396050024       -5.9197770415
 H        -7.6738400252        1.9584419406       -5.0125884034
 H        -4.9322909727        1.4148266257       -4.7915183064
 H        -4.6369363373        0.0276137593       -3.6768371947
 H        -5.2475638041       -0.3255884364       -5.3950264145
 H        -5.4374788555       -1.0625805860       -1.4387805145
 H        -5.7593425339       -2.6603026872       -1.0575647273
 H        -2.1234853758       -0.9550215915        2.2573211485
 H        -1.2284066198       -0.4685641239        0.8743906328
 H        -2.3117795359       -4.3535345106       -0.4882441263
 H        -3.6029239732       -3.6375031335        0.5705692857
 H        -1.8491172034       -3.2363214442        0.9754492389
 H        -1.2718227344       -2.2366542233       -1.9758005118
 H        -1.3437747124       -0.5606147986       -1.3906767649
 H        -0.5752031741       -1.9320897653       -0.3734686473
 H        -1.8177800375        1.3539136827        2.6726125985
 H        -3.4562664688        1.4461151164        1.8635253485
 H         2.0574894801        2.9671341455       -1.0052795255
 H         2.3162572171        3.3470734901        0.6516990007
 H        -1.5987606511        4.8507156722       -0.3767694572
 H        -1.2257274651        3.4353475874       -1.5133537370
 H        -0.0467050447        4.6836307569       -0.8044330346
 H         0.0582010756        3.5660583414        2.7879807148
 H        -0.8205320575        4.8671718476        1.9322083817
 H        -1.6648187164        3.3661202206        2.5462512754
 H         3.9609847165        1.5780890122       -0.0576263866
 H         2.9900268898        0.8327240072        1.0256945380
 H         4.8136073242       -2.0242369002        1.4054374794
 H         5.5388457791       -2.7268039464        0.0432127722
 H         1.9416503493       -2.5287590277       -1.3582226868
 H         2.5337971480       -2.3612079975        0.3279013962
 H         3.5786654219       -2.9573519803       -0.8714606483
 H         3.3839399018       -0.4988721500       -3.3556386755
 H         4.9946887873       -0.8050802758       -2.9450703180
 H         3.6987648535       -2.0902429941       -3.2586695942
 H         6.6820672647       -0.4703678474        2.0076573735
 H         7.3822159985       -0.7539256365        0.2907110395
 H        11.9944426913       -1.4747297556       -0.0966322838
 H        11.4412893040       -3.2064825447        0.4806194791
 H        10.6108091970       -0.1615587094        2.4626804868
 H         9.5139311173       -0.6228873017        3.6674001466
 H         8.9479652970        0.3692666678        2.0609095142
 H         9.4489992392       -3.2588128619        3.4633052321
 H         9.6792347952       -4.0095788506        1.9550154674
 H        11.0367248385       -3.0493758196        2.6248675946
 H        10.0871135556       -2.6394934377       -1.8411920030
 H        11.7882637998       -2.0714826563       -2.3184230321
 H        10.4382200150       -4.1294732134       -6.5798231555
 H        12.2717950141       -4.2026225739       -6.3472349521
 H        11.2244254955       -5.5607388752       -6.0990339036
 H        14.1275670001       -4.5214824417       -4.1504178459
 H        14.0083419770       -4.4344847779       -2.4187380152
 H        13.4664249548       -2.9914609998       -3.3312881723
 H        11.0305343518       -6.5833145985       -3.3854463113
 H        12.6100834610       -6.5732496557       -4.2789463580
 H        12.5697867374       -6.5909033309       -2.5371793771
 Na       -4.5859407365        1.7904785894        0.0016166227
