155

 C        -5.9279810693       -0.5628836368        3.6376169707
 C        -5.7978476068        0.9533719641        3.7811019170
 C        -6.1899638741        1.8355567069        5.0721072993
 C        -7.3289352969        3.0144464584        4.6706953794
 C        -7.0160816014        3.9950396600        3.5089451230
 C        -6.7174603103        1.0001317454        6.2987043178
 C        -4.9465662277        2.4901279280        5.4863004235
 O        -5.1889738735        1.5375021795        2.9345135429
 O        -8.3759683337        3.0685019275        5.2418956115
 C        -8.2112830858        4.8653396568        3.3289461574
 C        -8.7960530229        4.8733473707        1.8975275738
 C        -8.9030775901        3.4672573602        0.9861754972
 C        -7.6815189829        3.0842535833        0.2207755374
 C        -7.5457514953        3.2306548264       -1.3912973467
 O        -9.1748025048        5.8287083169        1.4004116848
 O        -6.5799930680        2.8627832869        0.7121891035
 C        -9.3231970353        2.4127670812        2.0248531241
 C       -10.1237920574        3.8070501580        0.0619468451
 C        -8.0147492606        1.9196729245       -2.1096407194
 C        -6.7184232943        1.3576005091       -2.7506935597
 C        -6.7306181958        0.2220785437       -3.9446843080
 C        -7.1346579353       -1.1688793773       -3.2493340860
 C        -6.0394388276       -2.2744005195       -3.0198941852
 C        -7.8555896086        0.4594614246       -4.9705744128
 C        -5.4545215618        0.1792991772       -4.7324988688
 O        -5.6247592674        1.6070831932       -2.2724158168
 O        -8.3014523105       -1.3180916738       -3.0144485381
 C        -5.3029749752       -2.1882326309       -1.6692501572
 C        -3.7968173448       -2.3969139959       -1.7414176004
 C        -2.7490763948       -2.1266928258       -0.5186278262
 C        -3.2266341939       -0.9722532307        0.4441261779
 C        -2.3828496191       -0.3267522800        1.5204052803
 O        -3.2029724169       -2.7467072985       -2.7128145944
 O        -4.4351965306       -0.6490239808        0.4802719718
 C        -2.8183874581       -3.2771271258        0.5768869005
 C        -1.2772061001       -1.8052642343       -0.9891652106
 C        -2.2801154225        1.2043989014        1.7064032212
 C        -1.8934348124        2.0451879189        0.5130604424
 C        -0.6762380610        3.1563905307        0.6463136225
 C         0.5349468710        2.1114246267        0.7641038519
 C         1.8512495684        2.4331190774        0.1214464122
 C        -0.7000933683        4.2811080678       -0.3600806971
 C        -0.5564666128        3.8566105695        2.0720784527
 O        -2.5797260260        1.8778957123       -0.4924098798
 O         0.4022993287        1.0782712909        1.3790925019
 C         2.7680309109        1.3143796967       -0.0702817599
 C         2.6258683379        0.2777348532       -1.2075141377
 C         3.6375307094       -0.9415747253       -1.3182677288
 C         4.9127649153       -0.6651695995       -0.5394736446
 C         5.7573638797       -1.8215075510        0.1663562534
 O         1.6841206498        0.1736056036       -1.9014731012
 O         5.4317999769        0.4484665772       -0.7671311525
 C         2.7786773646       -2.2610895046       -0.8203679778
 C         3.9034399447       -1.1567047220       -2.7899760390
 C         6.7874938961       -1.1186700558        1.0184201729
 C         7.8167251197       -2.2640919674        1.5400087273
 C         9.3110564561       -1.9605050491        1.7173407497
 C         9.8492364853       -1.7689053378        0.2230188038
 C        10.9207260515       -2.6622070628       -0.2567899054
 C         9.3910104861       -0.4532105279        2.4356251270
 C        10.0639132412       -2.9379388868        2.6527820377
 O         7.3324666711       -3.3928658101        1.6425181400
 O         9.3105461905       -0.9695884794       -0.4765902909
 C        10.9812591864       -2.8244925083       -1.7473325418
 C        11.6855252343       -4.1829961409       -2.0061382366
 C        11.9375832336       -4.6250240025       -3.4753851313
 C        11.0889813862       -3.9609677208       -4.5974698745
 C        11.3953405352       -4.3287985237       -6.0917460248
 O        11.7404309701       -4.8875924081       -1.0635157868
 O        10.1796444848       -3.2139804556       -4.3853107567
 C        13.4821208818       -4.1881295842       -3.7367717299
 C        11.8573338689       -6.1774977619       -3.6202535113
 H        -6.4052911389       -1.0706694047        4.4507097747
 H        -6.3981683114       -0.6241421242        2.5583317883
 H        -4.8842775218       -0.9988921671        3.4767690176
 H        -6.1236895151        4.4955498000        3.9185595848
 H        -6.8903195303        3.5574208336        2.5529738307
 H        -6.8515768605        0.0010775683        6.0979689831
 H        -7.6335230547        1.4628241944        6.6664300288
 H        -6.0285601771        0.9638867152        7.1068007741
 H        -4.3065125661        1.7735393858        6.0047525069
 H        -4.3245097589        2.9049072519        4.6631966274
 H        -5.2744368441        3.3736959858        6.1239083865
 H        -8.9523519420        4.4103814318        4.0931513707
 H        -8.1648420539        5.8891399378        3.5990916693
 H        -8.1454526807        4.0675113262       -1.7648617861
 H        -6.3944163339        3.4373491656       -1.5430678095
 H        -8.7868278140        1.4588422165        1.8275090496
 H       -10.3820278264        2.2749707049        2.0015796234
 H        -9.2196799752        2.6374816344        3.1380739464
 H       -11.0631453979        4.1400604802        0.5305108853
 H        -9.7149304878        4.6404899526       -0.5226526843
 H       -10.3920304163        3.0748331746       -0.7014736497
 H        -8.8184266654        2.0659128646       -2.7920001006
 H        -8.3469197383        1.1621306921       -1.4353049896
 H        -6.5302191780       -3.2615269326       -3.4081117275
 H        -5.3043308949       -2.2096108523       -3.8843427504
 H        -8.7698218034        0.4820127514       -4.3709199612
 H        -7.9207492923       -0.2296144013       -5.7098517290
 H        -7.8517004508        1.3432505540       -5.4916730538
 H        -5.4166763534        1.0470344783       -5.4031514816
 H        -4.5823872340        0.0240567198       -4.0874773502
 H        -5.5912352809       -0.5354920095       -5.5883323424
 H        -5.6491267533       -1.2489828628       -1.2476102117
 H        -5.7209404230       -3.0976393156       -1.0225216205
 H        -2.6915892666       -0.8726575361        2.3237357639
 H        -1.3693653596       -0.7282554546        1.4593618664
 H        -2.4836796578       -4.0862846345       -0.0122478194
 H        -3.8622060811       -3.5803223754        0.8675883721
 H        -2.0045389301       -3.1216365614        1.1300654695
 H        -0.8524745759       -2.4336774171       -1.8421847217
 H        -1.2122002626       -0.6793970716       -1.2092497563
 H        -0.7526568223       -2.0465765092       -0.1297406913
 H        -1.3837063542        1.2455581148        2.2945037589
 H        -3.1060423246        1.7370148916        2.1940479167
 H         1.7520853521        3.0259798428       -0.8157350306
 H         2.3014397722        3.1879155064        0.8077001030
 H        -1.3150435641        5.0228855674        0.1485929779
 H        -1.1344959498        3.9241991126       -1.2035807646
 H         0.1150114350        4.9886573959       -0.6262049733
 H         0.1802138098        3.4356426761        2.7075606354
 H        -0.2704163848        4.8708067878        2.0329583155
 H        -1.5325783974        3.7431571308        2.5856734890
 H         3.8310883440        1.6522395239        0.0862418598
 H         2.7240196221        0.7569585523        0.9449195001
 H         5.0578695606       -2.4405405101        0.8055554709
 H         6.1448150392       -2.6088840552       -0.4404887803
 H         2.0541345094       -2.2233673104       -1.6084823925
 H         2.3793304163       -2.0629422027        0.2397698855
 H         3.2755647982       -3.2752192807       -0.6379822117
 H         3.0358129790       -1.1146167451       -3.5046290368
 H         4.6177945057       -0.4035241573       -3.2071906069
 H         4.3561299586       -2.1371321997       -2.9076618123
 H         6.4360202774       -0.6150743796        1.8903789333
 H         7.4169988755       -0.4638752150        0.4209377207
 H        11.8820872681       -2.6224691995        0.0193452941
 H        10.5507388645       -3.6147804455        0.0377534188
 H        10.4189819423       -0.2730345420        2.7060470085
 H         8.9761437961       -0.4736644491        3.3981457586
 H         9.0666800546        0.3031601090        1.8501420271
 H         9.6331246715       -3.1293991698        3.5733679863
 H        10.2155849767       -3.9146580142        2.2813200785
 H        11.0034337986       -2.3522165639        2.8818928803
 H        10.0504288747       -2.8194037294       -2.2055587944
 H        11.7406261331       -2.0526439860       -2.2535132891
 H        10.5136199158       -4.4071632730       -6.6740324122
 H        11.9128668958       -3.5449931686       -6.5523450388
 H        11.9441447516       -5.2247868113       -6.2794567828
 H        13.8261304718       -4.6593913802       -4.6993139933
 H        14.0674233239       -4.6704108730       -2.9593706270
 H        13.5545701301       -3.1404382050       -3.8678188901
 H        10.7895222840       -6.5278889764       -3.5947237402
 H        12.1806989712       -6.5727862461       -4.5481612766
 H        12.3541372278       -6.6625240970       -2.8233915922
 Na       -4.8403027734        1.6552769781        0.0467143726
