155

 C        -5.9661067112        0.4963440131        4.8564281698
 C        -5.5106671518        2.0300388118        4.8074274929
 C        -6.2912009920        2.9358640560        5.8295928120
 C        -7.6044652476        3.4648956955        5.0608773004
 C        -7.3672178118        4.7495705660        4.3903200253
 C        -6.9185573501        2.2639106725        7.1490126832
 C        -5.1875741735        4.0314525895        6.2122565948
 O        -4.6706095846        2.4497904511        4.0278121202
 O        -8.4944585854        2.7040786078        4.8387036031
 C        -8.3572713525        5.2784414533        3.3899190554
 C        -8.0513240237        5.0846556277        1.7724749895
 C        -8.7558233998        3.9907628234        0.9242676508
 C        -7.6980267603        3.1886162813        0.0609816949
 C        -7.7825517633        2.7179072641       -1.5359040055
 O        -7.2554176211        5.6867323457        1.1857786511
 O        -6.6924749182        2.8261692459        0.6810277704
 C        -9.7319423280        2.8534593944        1.6158609645
 C        -9.7139368567        4.8154806423       -0.0597820693
 C        -7.7589055743        1.2098101454       -1.5439746493
 C        -6.6125089061        0.8616776016       -2.4621235244
 C        -7.0352424861       -0.0874851006       -3.5872814934
 C        -7.3250580716       -1.6174044284       -2.8423025181
 C        -6.0574607067       -2.6026955094       -2.7092791545
 C        -8.3609241145        0.4730070892       -4.3022239083
 C        -6.0304834519       -0.2835688206       -4.6985322398
 O        -5.4403218794        1.1634658393       -2.1494662483
 O        -8.4425804179       -1.8768453138       -2.4645243369
 C        -5.4612623172       -2.2055216954       -1.4001587627
 C        -3.9418255185       -2.5404641348       -1.3100226357
 C        -3.3657363312       -2.6171446156        0.1269088259
 C        -3.3033559201       -1.0618733400        0.4295971041
 C        -1.9456641728       -0.3536641052        0.7295285078
 O        -3.3809528173       -2.9515456705       -2.2746188942
 O        -4.4203876933       -0.5502950973        0.5624397243
 C        -4.4085103424       -3.1125673327        1.1725502197
 C        -2.0270669264       -3.4144458073        0.0378360672
 C        -2.1388730291        0.7935366867        1.6744658234
 C        -1.9957413083        2.2321832954        1.0765101981
 C        -0.5501860060        2.8810476209        1.1469075578
 C         0.5585334748        1.7859804586        0.8120281368
 C         1.2975667465        1.7869072521       -0.4963354904
 C        -0.7484152160        3.9966693257        0.1582436672
 C        -0.1464685611        3.4602797709        2.6243150293
 O        -2.9439707247        2.7801507329        0.5670294695
 O         0.9143460935        1.1290006273        1.7656923857
 C         2.4491350371        0.8341024998       -0.4038882448
 C         2.7262533377        0.0536102892       -1.7274849068
 C         3.8115842672       -1.0675104647       -1.5849529357
 C         5.1839967374       -0.4346711710       -1.2723487849
 C         6.4824385552       -1.2866952512       -0.9851281477
 O         2.0168255853        0.2070046017       -2.6742812439
 O         5.3156674606        0.7857409483       -1.2085143050
 C         3.4117956064       -2.0642164638       -0.5191167932
 C         3.9028817911       -1.9623114065       -2.9264642601
 C         6.6233022857       -1.3258858551        0.5055948510
 C         7.8569030892       -2.3392657692        0.8843498319
 C         9.3273881017       -1.9531357764        1.2041028819
 C         9.9947845527       -2.1671353244       -0.2616139098
 C        10.2254871487       -3.6817156801       -0.6394345413
 C         9.6332271563       -0.5153771058        1.5264739090
 C        10.1024244879       -2.9577665249        2.1965614041
 O         7.6728553862       -3.5462081348        0.8605295225
 O        10.4187566324       -1.2394036278       -0.8368400487
 C        10.2130744168       -3.9927695539       -2.1815876572
 C        11.5280133396       -4.5054422554       -2.7299168595
 C        11.9464796899       -4.8110156215       -4.2700913450
 C        11.0408489500       -3.8322650463       -5.0180748472
 C        11.6179012721       -2.6231286649       -5.8493074936
 O        12.3789756465       -4.6027929254       -1.8590385522
 O         9.8512775891       -4.0162052661       -5.0502051937
 C        13.4808816220       -4.6201802465       -4.4833729056
 C        11.5754845585       -6.1535872497       -4.8309278082
 H        -6.1944203042        0.3706314589        5.8492829512
 H        -6.9839131591        0.3506290762        4.2781673757
 H        -5.2366371460       -0.3256962959        4.5892719249
 H        -7.2503474993        5.4158632254        5.1961032402
 H        -6.4475296068        4.7434802104        3.8470393666
 H        -6.7812513178        2.9079778181        7.9349534247
 H        -6.3629306719        1.4168635274        7.4380953776
 H        -7.9488086923        1.9933700272        7.0091475785
 H        -4.8348968798        3.6341001657        7.2014144242
 H        -4.4796757815        4.0373487191        5.3778691219
 H        -5.4714823735        5.0618830189        6.4191073525
 H        -9.4535250586        4.8527416710        3.4786583488
 H        -8.4037855480        6.4008821096        3.3894136428
 H        -8.5662446469        3.2233664528       -2.1495434541
 H        -6.8497045075        3.0985425949       -2.0624728825
 H        -9.4085649713        2.6848416796        2.6663817527
 H        -9.7096266946        2.0351077375        0.9183566958
 H       -10.7644297082        3.3529883517        1.6922856020
 H       -10.2829279769        5.5397572387        0.5349116614
 H        -9.3167045759        5.4174281492       -0.8341223811
 H       -10.4082077386        4.1920033443       -0.5062513023
 H        -8.6351713120        0.6476366643       -1.8052511197
 H        -7.3253890072        0.8279056731       -0.6525045898
 H        -6.3949504379       -3.6743726125       -2.5426723381
 H        -5.3705917650       -2.5461284385       -3.6466981138
 H        -9.2141349095       -0.1309560466       -3.9305759982
 H        -8.3548218020        0.2063762133       -5.2871611389
 H        -8.4689477571        1.5218283683       -4.1544988819
 H        -5.9660192959        0.6559647711       -5.1818179859
 H        -4.9744475618       -0.4319807839       -4.4883301039
 H        -6.3540511761       -1.1870688770       -5.2813734225
 H        -5.8138421048       -1.1947676346       -1.2481723376
 H        -5.8858638941       -2.8503512239       -0.5233882616
 H        -1.3117814731       -1.1632254914        1.1850172653
 H        -1.5690290757        0.0316473725       -0.1678918323
 H        -4.8781006702       -4.0073858060        0.7752511028
 H        -5.0108601467       -2.3402531962        1.6985300345
 H        -3.7883844957       -3.3499558941        1.9320516959
 H        -2.4029613413       -4.4362621721       -0.0814698911
 H        -1.6241874567       -3.1112411201       -0.8795956713
 H        -1.4244353946       -3.3426118515        0.8393221635
 H        -1.3038788969        0.7557016895        2.4164615904
 H        -3.0455130575        0.6689026392        2.2290832478
 H         0.6718977841        1.5485506101       -1.3773580819
 H         1.7776790305        2.7606952159       -0.5411125100
 H        -1.5612141322        4.6937872014        0.3423755323
 H        -0.9567316599        3.7262508833       -0.8162308746
 H         0.2493693988        4.4951445962        0.0866473907
 H        -0.4292891591        4.4831899222        2.8366942707
 H        -0.4978090197        2.9337839895        3.4489225840
 H         0.8949859071        3.2994539451        2.7501752691
 H         3.2748272575        1.5699425142       -0.3696428801
 H         2.4004961508        0.3714492045        0.6289275129
 H         6.3360639044       -2.2664527970       -1.3613323681
 H         7.4284800197       -0.8635989309       -1.3240798246
 H         2.3173944060       -1.9328113953       -0.5734041014
 H         3.7357564708       -1.9414195145        0.6383816934
 H         3.6840206731       -3.0959861705       -0.9280024440
 H         4.2551536306       -1.3967673168       -3.7924392070
 H         4.4846412584       -2.8533801119       -2.7146957894
 H         2.9479386150       -2.3093604239       -3.3007618225
 H         5.7523690341       -1.6289545283        1.0773550139
 H         6.8474780415       -0.3917217114        0.9752388199
 H        11.1731918370       -3.9795644384       -0.2738976835
 H         9.5634543219       -4.3295049029       -0.0171379965
 H        10.1381389979       -0.5044215906        2.3943991161
 H         8.6988163657        0.0440741556        1.6601659745
 H        10.1372634966        0.0435175051        0.7580263610
 H         9.8572430649       -2.5690072763        3.1374628952
 H         9.7380763491       -3.9428198854        2.1517351505
 H        11.1716092694       -2.9889406528        1.9208994091
 H         9.4224935355       -4.6262892484       -2.4882844019
 H         9.9317667951       -3.0408233266       -2.7865792955
 H        10.8370911624       -2.1753346206       -6.4530482514
 H        12.0584659459       -1.8778180468       -5.2689891877
 H        12.4298875931       -2.8657875292       -6.4906004320
 H        13.6547374329       -4.6845356295       -5.5681543224
 H        14.0538897256       -5.3896392886       -3.9121647489
 H        13.6775108401       -3.7671809536       -3.9416840867
 H        10.5585460158       -6.4058876477       -4.4986799409
 H        11.7362679316       -6.2566818952       -5.8942972078
 H        12.0894401209       -7.0113357239       -4.4435541655
 Na       -4.8138659159        1.9614217589        0.1765268790
