155

 C        -6.1348385273        1.2600117229        5.4603197765
 C        -5.4630505600        2.5324528265        5.8503748093
 C        -6.3507074495        3.7851201893        5.9916819398
 C        -7.4277381164        4.0858779359        4.8573330764
 C        -7.8186797641        5.6056730501        4.4492749933
 C        -7.2023465871        3.4863930658        7.2857894217
 C        -5.5258852546        5.0097551044        6.3548420288
 O        -4.2827888512        2.4930050919        6.0678155514
 O        -7.9233662485        3.2077890333        4.1767023943
 C        -8.4820210182        5.6755937006        3.1129512382
 C        -7.6522564965        4.9545893674        1.9577463489
 C        -8.5794487123        4.2218698424        0.7492441529
 C        -7.7841296466        3.0321908019        0.3059003181
 C        -8.5173189367        2.0026640059       -0.5729724422
 O        -6.4688536085        4.9293003386        1.9428732636
 O        -6.6810917446        2.6854396940        0.6610894036
 C        -9.7952139125        3.5462732814        1.2719752798
 C        -8.9325407288        5.1962955295       -0.4508479141
 C        -7.7914864001        0.6137288885       -0.6990992162
 C        -6.8515995927        0.7295339483       -1.9620044888
 C        -7.0073284162       -0.0719454445       -3.2062351974
 C        -7.2926571296       -1.6666230842       -2.8288608163
 C        -6.1321111635       -2.6031872531       -2.4902856431
 C        -8.4945595784        0.2934852877       -3.8177664384
 C        -5.8426969463        0.1491106411       -4.2387109455
 O        -5.7913564597        1.3965687448       -1.9416633405
 O        -8.3670658704       -2.1341995637       -2.6476755657
 C        -5.9436157885       -2.8293381934       -1.0677138503
 C        -4.4406743556       -3.0104552285       -0.5917412959
 C        -4.1103465531       -2.6236083730        0.8566050401
 C        -4.0235865707       -1.0834776535        0.6482176454
 C        -2.6502369042       -0.5594414081        0.2742900602
 O        -3.6243206835       -3.5239210177       -1.3417172320
 O        -4.9128857721       -0.2277326171        0.8441749266
 C        -5.2204736660       -2.9999431910        1.8694826520
 C        -2.7289214959       -3.3160593088        1.2386716285
 C        -2.1084936167        0.4948963811        1.3125989908
 C        -1.6853863709        1.8741636645        0.7493126384
 C        -0.4028399553        2.6040660862        1.2168293801
 C         0.9374321072        1.7051512533        0.9640738861
 C         1.0888450296        1.0420659287       -0.3075742908
 C        -0.0601201206        3.9257160863        0.5247623862
 C        -0.5327457162        2.9374686187        2.6875237383
 O        -2.3848817311        2.4980511392       -0.0473065230
 O         1.6502091252        1.6115541605        1.9810904737
 C         2.5748417418        0.7105009908       -0.5454014040
 C         2.7095335263       -0.1214130697       -1.7862785719
 C         4.0749802858       -1.0817707931       -1.9015628718
 C         5.3715891112       -0.1950452562       -1.6211827062
 C         6.6119039889       -1.0932434070       -1.2561896966
 O         1.7802836017       -0.1223634348       -2.5957062552
 O         5.5166603386        0.9683662404       -1.8262705008
 C         4.1150556766       -2.4002452544       -0.7526259991
 C         3.9286192679       -1.7068461707       -3.2635343231
 C         7.2537035544       -0.9822604348        0.1559861474
 C         8.0383564004       -2.2134981086        0.5702307928
 C         9.6430539324       -2.3136269352        0.6160737190
 C         9.8814894237       -2.7284540922       -0.8295975216
 C        10.2494664415       -4.2202275307       -1.0501556372
 C        10.3644426705       -1.0243838357        0.8904704444
 C        10.0317069066       -3.3669201217        1.6613542822
 O         7.4305420215       -3.2169869863        0.9788743611
 O        10.0568391390       -1.8970181587       -1.7160995106
 C        10.1374036037       -4.8382286775       -2.4707596469
 C        11.6047257890       -4.6526205878       -3.2783458856
 C        11.7360226378       -4.8716567336       -4.8995361924
 C        11.2062139926       -3.5710996702       -5.5920763510
 C        11.2043864328       -2.3679646371       -4.8198624357
 O        12.4434622680       -4.0535026204       -2.6672145308
 O        10.7639058249       -3.6947038287       -6.7241133290
 C        13.2127920683       -4.8037128254       -5.2436262146
 C        11.2419321237       -6.1645007223       -5.4988157723
 H        -7.1287820501        1.1075341231        6.1378765193
 H        -6.3819536910        1.5086816116        4.4349508277
 H        -5.6186873262        0.3182026208        5.6272507210
 H        -8.4015436670        5.9716581718        5.3586964514
 H        -6.9851485940        6.3550146497        4.5129536567
 H        -7.9038521393        4.3594770190        7.5271652227
 H        -6.4271850410        3.2509194723        8.1112122013
 H        -7.8504446856        2.5868917348        7.2145866169
 H        -5.1506239541        4.8619801945        7.3011537647
 H        -4.6105284346        4.8938137146        5.8338147849
 H        -5.9881209596        5.9895766804        6.1529321961
 H        -9.4592082015        5.1881220671        3.2081894751
 H        -8.7728872372        6.6796608255        2.7892078352
 H        -9.4974927761        1.7612225492       -0.1480271407
 H        -8.7135920051        2.3670039431       -1.6959197471
 H       -10.4330669088        3.3156974583        0.4281698202
 H       -10.3575898898        4.1182817494        1.9362559613
 H        -9.5199129714        2.7422858651        1.8677091790
 H        -8.6579710626        6.2742139280       -0.2897101799
 H        -8.2876221766        4.9241591726       -1.3293070825
 H        -9.9678329139        5.2053268604       -0.8602194377
 H        -8.4852433597       -0.2031104376       -0.9658594879
 H        -7.3268054315        0.3272170733        0.2560553116
 H        -6.4206635966       -3.5163557102       -3.1123866884
 H        -5.1629788990       -2.1394069629       -2.8130649015
 H        -9.1700042596       -0.4500959625       -3.3575631221
 H        -8.3517627219        0.0095623551       -4.9550939483
 H        -8.8382301589        1.3913832214       -3.7525023050
 H        -4.9519950139        0.7375367436       -4.0271318709
 H        -5.5359291445       -0.7871245079       -4.7711605750
 H        -6.1929589860        0.8340243059       -5.0397263865
 H        -6.4460862027       -2.2375670179       -0.1894544294
 H        -6.4180673121       -3.8244584732       -0.7835519633
 H        -1.9017451311       -1.3299634879        0.2709160453
 H        -2.7079506832       -0.0911182348       -0.6673289455
 H        -5.5662766643       -3.9632013282        1.6109164906
 H        -6.0159923611       -2.2662216689        1.9964694022
 H        -4.7487929352       -3.3804035465        2.8419308771
 H        -2.8646193499       -4.3467101709        1.2664360683
 H        -2.0275937098       -3.1325394245        0.4102853124
 H        -2.4076370071       -2.9541386273        2.2685815237
 H        -1.2679226121        0.1206308982        1.9751014982
 H        -2.8578542954        0.8470677300        2.0691305417
 H         0.4462824675        0.1288182479       -0.1509197187
 H         0.6519612264        1.4509332360       -1.2268223267
 H        -0.6516072465        4.7927899912        0.7413378251
 H         0.3455247905        3.8520435304       -0.4702553919
 H         0.7997260237        4.2230896771        1.0963321756
 H        -0.1011842971        2.1835889486        3.3545358930
 H        -0.3097529506        3.9548843499        3.0421310899
 H        -1.6462274012        2.8588176128        2.9797953607
 H         3.1257425017        1.6260148156       -0.6922917932
 H         3.0642391493        0.1660508059        0.3005239567
 H         6.3368194852       -2.1805466351       -1.4463256936
 H         7.2655101034       -0.9035561587       -2.1169194716
 H         3.1163352966       -2.9381484796       -1.0377756141
 H         4.3098917256       -2.0636798727        0.2063629830
 H         4.8197407363       -3.1314377903       -1.1692451282
 H         3.8850449428       -0.9122992373       -4.0479622987
 H         4.7721042154       -2.2630344312       -3.6873006188
 H         3.0217319265       -2.3062930115       -3.3050758276
 H         6.3381717746       -0.9878591911        0.7326117926
 H         7.7263449416       -0.0226836444        0.0571556406
 H        11.1689080632       -4.3815874088       -0.6398521165
 H         9.4385677047       -4.7034075557       -0.5129617143
 H        11.5066438549       -1.0627515390        0.8476548782
 H        10.0851361569       -0.7077955913        1.8123491453
 H         9.9413048855       -0.2512760531        0.2654149019
 H        10.2491509947       -2.9824568035        2.6468368959
 H         9.1386116194       -4.0237254599        1.7079639353
 H        11.0242860011       -3.8410144351        1.2949873283
 H         9.8132039482       -5.8937625001       -2.3297842311
 H         9.2705053956       -4.2453516019       -3.0245649851
 H        10.6033649648       -2.5326269422       -3.9003923650
 H        12.2809524898       -2.0331146524       -4.7172930238
 H        10.7043960008       -1.5080913041       -5.3690673968
 H        13.4683723683       -4.5571560496       -6.3137925712
 H        13.5511394925       -5.7388696942       -4.9363310986
 H        13.4830276899       -3.9635274536       -4.6446206720
 H        10.2962462718       -6.5371557412       -5.0081042217
 H        10.8510179356       -6.0778755337       -6.4667200329
 H        11.8972707378       -7.0013922494       -5.4167152180
 Na       -4.6707616566        1.9356286910        0.0055684237
