155

 C        -7.3888999119        4.4527455720        7.9721011781
 C        -6.6260189472        5.6357898661        7.4867635453
 C        -7.5138234664        6.7976064955        6.6671924721
 C        -7.3720231458        5.9862210459        5.0959501407
 C        -6.0438908384        6.4137892750        4.2546732355
 C        -9.0170625601        6.6747124241        6.8595030983
 C        -6.8261353063        8.1826685150        6.6642598215
 O        -5.4091165094        5.8676808959        7.4707391556
 O        -8.1759386017        5.2222393410        4.6814778163
 C        -5.7944133220        5.5366117643        3.0586346247
 C        -6.7656039636        5.6911930037        1.9023090049
 C        -6.1824898056        5.5059472062        0.4993249202
 C        -6.3787187724        3.9800969957        0.3054530611
 C        -7.4723188909        3.3451866374       -0.5908972036
 O        -7.9794767277        5.7948530459        1.9358005478
 O        -5.8918205043        3.3200123945        1.2844753589
 C        -6.9778869991        6.2899021552       -0.4606946803
 C        -4.6697437752        5.7318261632        0.3630092143
 C        -7.9471358799        2.0457315269       -0.0541480603
 C        -7.1632818314        0.8034275002       -0.5786132100
 C        -7.9226589262       -0.4334308488       -1.2446620310
 C        -7.6559823257       -1.6018103438       -0.0798220306
 C        -6.4111962894       -2.4554354498        0.0273025966
 C        -9.4929549186       -0.3047251829       -1.6434063155
 C        -7.1184439859       -0.8357457499       -2.5487510709
 O        -6.0520580994        0.6004457837       -0.2383728038
 O        -8.4753143822       -1.7341824295        0.7833036449
 C        -6.5227456879       -3.5925267959        1.1022552602
 C        -5.0614895073       -4.0461470224        1.6970882680
 C        -4.6379110069       -3.1160606960        2.8246063214
 C        -4.0569280971       -1.7770117802        2.3348811998
 C        -2.8831757372       -1.8346425543        1.3332172492
 O        -4.6566897368       -5.1260250358        1.4169519544
 O        -4.4490592925       -0.6665188721        2.6664746668
 C        -5.9239276613       -2.6029451919        3.6736659144
 C        -3.5476105861       -3.7219242966        3.8078539709
 C        -1.6976607331       -1.0188123697        2.1014610405
 C        -1.6183471104        0.4292972955        1.5672509160
 C        -0.0822346648        0.9634481234        1.7211695334
 C         0.8781658425        0.1248143828        0.8264291619
 C         2.2802408776        0.6727828908        0.4714260267
 C        -0.1027903384        2.3832466193        1.3807769788
 C         0.3294297611        0.7643333662        3.2583565722
 O        -2.5417564632        0.9612769644        1.0978736234
 O         0.6076228105       -1.0567357637        0.6135601577
 C         3.0932345746       -0.3767922506       -0.1274658081
 C         2.8075792065       -0.6109291311       -1.6865844972
 C         3.8279569607       -1.5786796297       -2.4055520232
 C         5.1440547735       -0.8160862698       -2.4850788374
 C         6.2879542988       -1.2970336944       -3.4017976334
 O         1.9786424587        0.0190977482       -2.3752743046
 O         5.4503760496        0.1007413720       -1.7291666052
 C         3.9984416935       -2.8426974747       -1.5072293767
 C         3.4315905197       -2.0489587719       -3.8010316039
 C         7.6108817114       -1.5702080800       -2.6092320277
 C         7.8526654896       -3.0379364141       -2.0252869471
 C         9.2960194441       -3.8078401238       -2.0230498865
 C         9.4354281413       -4.3667015114       -3.5101285095
 C        10.4669068953       -5.4559789025       -3.9197154314
 C        10.3996517168       -2.8041142175       -1.8292389638
 C         9.4114840497       -4.9861136808       -1.0082936054
 O         6.9538412371       -3.4837223179       -1.3220702521
 O         8.8228852178       -3.8316918984       -4.4316349363
 C        10.8686582606       -5.2801446894       -5.3756062600
 C        12.0715343841       -4.4238542490       -5.7641920469
 C        12.2466109341       -3.9511755568       -7.2029342456
 C        11.1618578267       -2.9325382599       -7.5688371014
 C        11.3605544835       -1.6305430180       -8.3915684138
 O        12.7911574271       -3.9372994138       -4.8745736425
 O         9.9424911439       -3.1733171641       -7.2926594572
 C        13.5673638347       -3.2835459990       -7.2873718298
 C        11.9744377716       -5.1316694687       -8.2098567360
 H        -6.6360057316        3.7689360261        8.4066507383
 H        -8.3256375502        4.7332093896        8.5897026849
 H        -7.7700310834        3.8337862616        7.1775102482
 H        -6.1371920126        7.4514362878        3.8528904190
 H        -5.2915765912        6.2852472330        4.9755026060
 H        -9.3980455339        7.4657664318        6.2939500429
 H        -9.4010409523        6.9029762097        7.8488473025
 H        -9.3485412905        5.7141908391        6.5552689654
 H        -6.9416653332        8.6649285297        5.6167226071
 H        -7.2443170387        8.8478356273        7.4339435765
 H        -5.7529588274        7.9063233047        6.7002964542
 H        -4.7081537977        5.7370362487        2.6975166696
 H        -5.8928331566        4.5242779271        3.3295380302
 H        -8.3991429586        3.9336174839       -0.6072412014
 H        -7.1443243962        3.2193242156       -1.5222855843
 H        -6.5083537941        7.1875843650       -0.9381929454
 H        -7.9035090054        6.5455533906        0.0246173753
 H        -7.4188074768        5.6564194898       -1.2160538276
 H        -4.2463772108        6.6997492265        0.5393763017
 H        -4.1337341700        4.9819157845        0.8755241520
 H        -4.6460137556        5.7122561060       -0.7239552754
 H        -8.9806865089        1.8501232146       -0.3742078989
 H        -8.0051210964        2.0462027446        1.0212994608
 H        -5.9291890198       -2.8411727431       -0.8030432001
 H        -5.7456957513       -1.7485196199        0.4162070497
 H       -10.2860138323       -0.2676906271       -0.9113272135
 H        -9.8360321427       -1.2525289188       -2.1964418946
 H        -9.7412141917        0.5308055304       -2.3702425818
 H        -6.2734547433       -1.5082479122       -2.2863456656
 H        -7.8359651004       -1.3759346466       -3.1923895668
 H        -6.7561891752        0.1836183853       -2.9569984387
 H        -7.3312569302       -3.4161426775        1.8736727187
 H        -6.8952934117       -4.5448254975        0.6410617747
 H        -2.6951774964       -2.7512204234        0.7460029699
 H        -3.0773103911       -1.0797508291        0.5689087481
 H        -5.5880249768       -2.0686927567        4.5713800770
 H        -6.6546771990       -3.4346264135        3.9502388733
 H        -6.3396731366       -1.8391786782        2.9687004589
 H        -3.2352391831       -4.7417936581        3.4195160527
 H        -2.6455714595       -3.1180064718        3.7402641108
 H        -3.9773075030       -3.6628092357        4.7811664288
 H        -0.8237857800       -1.5825544235        1.7364572515
 H        -1.8093427830       -1.1246456435        3.1822835020
 H         2.0188909445        1.5713187410       -0.1100227252
 H         2.8584536049        1.1027957892        1.2518101626
 H        -0.4121305551        2.9074226837        2.3183151002
 H        -0.7880081899        2.7106227913        0.6289738201
 H         0.8818167996        2.7911004905        1.0019215619
 H        -0.3821479592        0.1442738819        3.7732850875
 H         1.2499094867        0.1200848127        3.3316224641
 H         0.3285195629        1.6808431244        3.7713162159
 H         4.1802092863       -0.1005222834       -0.0689425492
 H         2.9331357096       -1.3464714176        0.4398994785
 H         6.0146149622       -2.2261293739       -3.9423723555
 H         6.3677583021       -0.5283051700       -4.1296090177
 H         2.9442005909       -3.1715320462       -1.3166196857
 H         4.5787081038       -2.7868252504       -0.5288994822
 H         4.3366861618       -3.6442665171       -2.1303609417
 H         3.2565940951       -1.2172865682       -4.4436362916
 H         4.2745553771       -2.4913008810       -4.3234428189
 H         2.5947333644       -2.7060369176       -3.6476058927
 H         7.8343525709       -0.8310605148       -1.9052753431
 H         8.3612584425       -1.4604817924       -3.4263320331
 H        11.2860496595       -5.3546624204       -3.2288755790
 H        10.0628971554       -6.4219952050       -3.7611885651
 H        10.6128570162       -2.6728346123       -0.8070867703
 H        10.3705150710       -1.9311043706       -2.3779092357
 H        11.3547643644       -3.2024041995       -2.2732401076
 H         9.1732973683       -4.5851811735        0.0090700130
 H         8.6090809528       -5.6913830031       -1.1644147241
 H        10.3839985161       -5.5061233741       -0.6305898120
 H        11.0308926227       -6.2580774087       -5.7440034774
 H         9.9858021856       -4.7301423361       -6.0177145524
 H        12.1578372704       -0.9860455730       -8.1930288128
 H        11.6457770093       -1.8166584964       -9.3806834059
 H        10.4272534506       -1.1032003787       -8.3400355803
 H        14.0209737100       -3.2994793962       -8.2622856902
 H        14.2238891280       -3.9328616150       -6.6346537888
 H        13.6311074968       -2.2652322578       -6.8559140764
 H        12.6109548543       -4.9053289235       -9.0528574944
 H        12.1902975860       -6.1778761883       -7.8420716331
 H        10.9333929676       -5.1798890896       -8.5353232024
 Na       -4.6705869886        1.2757445904        1.3902697112
