155

 C        -7.2918977525        4.8730098026        8.1128545099
 C        -7.0476235739        6.3379865479        7.6891233002
 C        -7.8960190075        7.0749726722        6.7838389761
 C        -7.4320740101        6.4016039036        5.2432862689
 C        -6.7557238782        7.2481834695        4.1215598019
 C        -9.4017360540        6.8775761871        6.9130688555
 C        -7.5147845979        8.5893140531        6.6877334931
 O        -5.9097626766        6.7468621639        7.9366865250
 O        -7.7941126333        5.2814280697        4.8939461611
 C        -6.0927896783        6.1445067332        3.1325588455
 C        -6.6062034456        6.3219696174        1.6944139878
 C        -5.8488093123        5.4803868573        0.4187024377
 C        -5.8312382064        3.8759031245        0.6555696064
 C        -7.0116982492        3.0822595361        0.1960202106
 O        -7.3194143784        7.2934998049        1.3945189585
 O        -4.9130829521        3.3208812582        1.1385634973
 C        -6.3226120376        6.0092953764       -0.9879910821
 C        -4.4588428310        6.1456208971        0.5970590640
 C        -7.4141864643        1.6919371215        0.8293102955
 C        -6.9034392983        0.5476429839        0.1126300946
 C        -7.7508235931       -0.4838795841       -0.6611838703
 C        -8.0885062345       -1.6992479173        0.3184816814
 C        -6.9381757191       -2.6355749269        0.6084746317
 C        -9.0503449290        0.0875858287       -1.0389229266
 C        -6.8429590110       -1.0737291981       -1.9170481558
 O        -5.7193524436        0.2736717687       -0.0640522381
 O        -9.1804400415       -1.7171616677        0.7785583060
 C        -6.9663986137       -3.4667474738        1.9397797180
 C        -5.5559450648       -3.9475260560        2.3007232685
 C        -4.7704120455       -3.1236006588        3.4674839755
 C        -4.3809362263       -1.8867261684        2.5596823022
 C        -3.2945591402       -2.1342203088        1.5144050408
 O        -4.9888533634       -4.8093301290        1.7263650618
 O        -4.9825559960       -0.8545861322        2.7673584262
 C        -5.8772800651       -2.8691286664        4.6198737533
 C        -3.6876971992       -4.0159380295        4.1555374723
 C        -1.8523224549       -1.4771265882        1.7256684978
 C        -1.6379960614       -0.0537998512        1.3601641588
 C        -0.2296517883        0.5651749625        1.6107055500
 C         1.0334374322       -0.2155506698        0.7531182293
 C         2.3302601810        0.6317097680        0.7321462787
 C        -0.3153376528        2.0390824952        1.2863940539
 C         0.2380786530        0.1898093318        3.1074142951
 O        -2.5028059001        0.5584740771        0.7022837561
 O         0.9232806541       -1.3520274595        0.4104177437
 C         3.3912744597        0.0145608417       -0.0640506548
 C         2.9757547729       -0.3366021312       -1.5772107609
 C         3.7761048524       -1.3593177167       -2.3746506043
 C         5.4006384203       -1.1684220334       -2.3310648243
 C         6.1157862492       -1.7029376871       -3.5893669388
 O         2.1484328464        0.3108506901       -2.1846344113
 O         5.9796459494       -0.7012986961       -1.3400369928
 C         3.4944623004       -2.7827058491       -1.6541098106
 C         3.1104640193       -1.4865611442       -3.7933976512
 C         7.5445549011       -2.0687288915       -3.5448154874
 C         7.6985790212       -3.3028815814       -2.7126382641
 C         9.2490666422       -4.1170903171       -2.5841061867
 C         9.6334099087       -4.5948043490       -3.9570126254
 C        10.9447194412       -5.3473208491       -4.3120213859
 C        10.0299474989       -2.9183464616       -1.9232039221
 C         9.1234920448       -5.2187605319       -1.5986528879
 O         6.9601982201       -3.7568523249       -1.9321640543
 O         8.8058527012       -4.2621898644       -4.8382899780
 C        11.2762274351       -5.3098031612       -5.7921105605
 C        12.1728928746       -4.1746692213       -6.2072255864
 C        12.3651367989       -3.8186849621       -7.7493370186
 C        11.0543670090       -2.9494533724       -8.1514018843
 C        11.2846657690       -2.0397238513       -9.3833696979
 O        12.5416722363       -3.4732481234       -5.2030141542
 O        10.0197650542       -3.1540910349       -7.5500222096
 C        13.7720324937       -3.0413856504       -7.8945552412
 C        12.4865543488       -5.0617852622       -8.6584299983
 H        -7.6497128502        4.7704226070        9.1851988337
 H        -8.0370580487        4.3147864883        7.4343445073
 H        -6.3933554124        4.3766924965        8.1381941357
 H        -7.5727272801        7.4341623834        3.5068970625
 H        -6.0103361434        8.0424330608        4.3484410632
 H       -10.0628999454        7.2467567304        6.1409077852
 H        -9.7514987423        7.1440550940        7.8423682166
 H        -9.5300556364        5.8177342633        6.7431783709
 H        -8.0362593165        8.9742196925        5.7919586840
 H        -7.9423498507        9.0705565133        7.6529177147
 H        -6.4429573549        8.7967636908        6.5514292192
 H        -5.0463618636        6.2685543971        3.2027001188
 H        -6.2686359276        5.0961461143        3.3959426197
 H        -7.9560245391        3.5956111107        0.1640630070
 H        -6.8075388900        3.1301852756       -0.9398318918
 H        -6.5430710697        7.0157527889       -1.0815500952
 H        -7.1200820892        5.4978337039       -1.3945188259
 H        -5.4822374741        5.8923331953       -1.7180651285
 H        -4.5627343585        7.1744120426        0.6665369350
 H        -3.9884085419        5.8386008978        1.5188544603
 H        -3.7092850867        5.8425587577       -0.1323264094
 H        -8.4390323045        1.5085235270        0.9698242390
 H        -7.0189520800        1.7251352519        1.8357082002
 H        -6.8294810588       -3.3380998033       -0.1954822735
 H        -6.1148362547       -1.9359979768        0.5578314933
 H        -9.6981309207        0.4550758968       -0.2635776285
 H        -9.5513630638       -0.7888766720       -1.6514734049
 H        -8.9813074612        0.9736105628       -1.6966869045
 H        -5.7586398932       -0.9421068736       -1.6073776166
 H        -7.4402057701       -1.9974256927       -2.0701812065
 H        -7.1095900254       -0.4605961742       -2.7893350641
 H        -7.3969760348       -2.9656790982        2.7788873800
 H        -7.6469739311       -4.1271975408        1.6485421807
 H        -3.1136783960       -3.2001945084        1.5419246590
 H        -3.7928681039       -2.0490461472        0.4430927425
 H        -5.3847857897       -2.7047898095        5.6401312841
 H        -6.6100248293       -3.6790152329        4.4844414991
 H        -6.2776112627       -1.9368672514        4.4400687067
 H        -2.7063417518       -3.9606950284        3.5188946979
 H        -3.7123987013       -3.7765891831        5.2859587236
 H        -3.9464443525       -5.0243859217        4.0247822597
 H        -1.2735512985       -2.0878895092        1.0998876996
 H        -1.5195360405       -1.6540313016        2.7233132914
 H         2.1229860702        1.6497250854        0.4136051065
 H         2.5646337403        0.8434248370        1.8310951153
 H        -1.2857722083        2.3575153045        1.5061873081
 H        -0.1845022160        2.3471638464        0.2554964715
 H         0.4044692378        2.6612482025        1.9309740024
 H        -0.3678580154       -0.3946980812        3.7880628285
 H         1.2367230350       -0.1727989801        3.1480249507
 H         0.5292546927        1.1373656771        3.6164931120
 H         4.2607346305        0.5768135352       -0.1823465872
 H         3.8383784118       -0.8783369062        0.3595787887
 H         5.5229449365       -2.5310536151       -3.7219799944
 H         5.9682263259       -1.0009377591       -4.3898220406
 H         2.4647047913       -3.0080882810       -1.4895992735
 H         3.8695358560       -2.8370116811       -0.6890336204
 H         4.0499549757       -3.5574961946       -2.1256582242
 H         3.6035464901       -0.6499932184       -4.3550284439
 H         3.2724652803       -2.4594005468       -4.2908744117
 H         2.0285844533       -1.3169899673       -3.7761051305
 H         8.0152462515       -1.2325578483       -2.9154601914
 H         8.0323104135       -1.8287617471       -4.4921377235
 H        11.7236823609       -4.9317425175       -3.6650074685
 H        10.7344827945       -6.4583836924       -4.1539626486
 H        10.5320456892       -2.3261241060       -2.6014862623
 H        10.8333660523       -3.0837703522       -1.2543280681
 H         9.2778092763       -2.3019104039       -1.3038001578
 H         8.2560389612       -5.0095584725       -0.8777136444
 H         8.8942948332       -6.2035944976       -1.9587534430
 H        10.0056614179       -5.3530217976       -0.9194999722
 H        11.7695306557       -6.2929795496       -6.0469772992
 H        10.3771821373       -5.2144343710       -6.2607718872
 H        11.6520717312       -1.1306579346       -9.0455919253
 H        11.8943466466       -2.3397147476      -10.1568353129
 H        10.2858244443       -1.7418312119       -9.7873096060
 H        14.0919425151       -2.8907742312       -8.9606783856
 H        14.6130380193       -3.5233340540       -7.3953668471
 H        13.7691726530       -1.9474726226       -7.5113544251
 H        13.0077296839       -4.9555597878       -9.6615993738
 H        13.0471107297       -5.6877544266       -8.0115324431
 H        11.5341237864       -5.6170062527       -8.7853432879
 Na       -4.5425639276        0.9746179581        1.5813048041
