155

 C        -7.3545571246        5.1475271635        8.0452670889
 C        -7.0647647731        6.5112745633        7.5985194463
 C        -8.0224930315        7.1908020048        6.5322530663
 C        -7.6824595556        6.3696016127        5.2647960064
 C        -6.9848707810        7.1189187140        4.0100138425
 C        -9.4241014567        6.8639496049        6.8501896051
 C        -7.8717288797        8.7596729964        6.6537392315
 O        -6.1018146798        7.0991603146        8.0344871757
 O        -7.6866576490        5.1598833363        5.2668955527
 C        -6.2536096361        6.2219576397        2.9593581516
 C        -6.3904248607        6.4758604284        1.5065581353
 C        -5.6904275171        5.4571529635        0.5745312053
 C        -5.8247650500        4.0275971957        1.0294120468
 C        -7.0022142417        3.0733841819        0.6028811184
 O        -7.0731839016        7.3418473568        0.9885230187
 O        -4.8740719042        3.4254955442        1.6680413228
 C        -6.3145890406        5.5599720867       -0.8469418561
 C        -4.0911763824        5.8530699657        0.4523935930
 C        -6.9185214417        1.6110592594        0.9924614916
 C        -6.7018035843        0.4647838920       -0.0537440157
 C        -7.8345141280       -0.3375414515       -0.6487662793
 C        -8.2101354600       -1.5053337581        0.4286591097
 C        -7.0511908254       -2.5604446445        0.7458662333
 C        -9.0798969681        0.4715702821       -1.1333933907
 C        -7.4251279548       -1.1908129799       -2.0075741806
 O        -5.5947629286        0.0511844381       -0.0867616802
 O        -9.2401154464       -1.6004272140        1.0546949151
 C        -7.2374617560       -3.4395565903        2.0527275463
 C        -5.8612117725       -4.0328164327        2.4709245386
 C        -4.8250227501       -3.1776311382        3.6231927525
 C        -4.2522614263       -1.8761284448        2.9343241089
 C        -3.2860114242       -2.0078248241        1.6596106944
 O        -5.4368642283       -4.9961153032        1.8844942597
 O        -4.4953811664       -0.6867118604        3.2258156250
 C        -5.7429171720       -2.6416568631        4.8629317359
 C        -3.7239966728       -4.2188446760        3.9159593558
 C        -1.8215351262       -1.6441459649        1.6756133676
 C        -1.5219446971       -0.1897319700        1.2507512294
 C        -0.0650470805        0.4357629609        1.7097734759
 C         1.0342499448       -0.2475337031        0.8549385970
 C         2.4419525457        0.4830151028        0.8994042238
 C        -0.1845917123        1.9318900062        1.4950938512
 C         0.0799883971        0.2571244029        3.1980942812
 O        -2.3239134938        0.5507059865        0.7225793641
 O         0.7412374921       -1.3368991326        0.4016590088
 C         3.5228413884       -0.0531047258       -0.1408653991
 C         3.0505375409       -0.1822534190       -1.6184536027
 C         3.6763917621       -1.4097598980       -2.3774727784
 C         5.3615533490       -1.3355528620       -2.3648360434
 C         6.0550847714       -1.8140405016       -3.8334787709
 O         2.2382976509        0.5685893878       -2.0742714217
 O         5.9542048140       -0.9769547021       -1.4236530646
 C         3.3442007061       -2.7050952661       -1.6712894021
 C         3.2065478252       -1.4117745124       -3.8977970662
 C         7.5858885731       -2.1683768226       -3.4898161598
 C         7.6674442368       -3.4781222389       -2.6247743065
 C         9.0696778121       -4.0979861184       -2.6142427989
 C         9.5459148525       -4.6944180263       -4.1777105359
 C        10.9459322383       -5.3094206164       -4.2030161474
 C        10.2010955445       -3.0527376441       -2.3006007648
 C         9.1017403147       -5.2538214213       -1.6522110106
 O         6.5368909068       -3.9324009286       -2.1187320394
 O         8.9194973269       -4.5765061101       -5.1513328609
 C        11.4863303582       -5.3224733865       -5.7119961115
 C        12.0887938223       -4.0270417008       -6.3082905444
 C        12.4175304772       -3.7538243653       -7.9459406110
 C        11.1530212143       -2.9706293480       -8.5144969910
 C        11.3549261068       -2.1057738383       -9.6902301691
 O        12.5907946093       -3.2972547332       -5.5902648133
 O        10.1065639197       -3.0400800649       -7.9581654522
 C        13.5780823426       -2.7988878761       -7.9686873516
 C        12.6225116534       -5.1037588843       -8.6181105513
 H        -6.4486182664        4.7088949375        8.4254068647
 H        -8.0939946467        5.2036446256        8.7538110767
 H        -7.5968993347        4.4243697330        7.2326143362
 H        -7.7036620830        7.7205708829        3.3731397571
 H        -6.1482436383        7.5637030552        4.4965358725
 H       -10.0700216049        7.3082802040        6.0845731069
 H        -9.6933877534        7.1737785895        7.9425298409
 H        -9.7252580838        5.7858344878        6.7525673120
 H        -8.7892742744        9.2941678358        6.5894526625
 H        -7.2645082178        9.0494676203        7.4525923015
 H        -7.2918690057        9.0283116095        5.7641044895
 H        -5.2114143010        6.2638916214        3.3683482717
 H        -6.5208024219        5.1184404780        3.1710461836
 H        -7.9799393684        3.3807492022        1.0904408281
 H        -7.3611063036        3.2080363466       -0.4005462710
 H        -6.4551398385        6.6327605245       -1.1116861512
 H        -7.4005121525        5.1854593882       -0.7736810189
 H        -5.7659597836        5.1970015097       -1.6844423203
 H        -3.9662622102        6.9073017311        0.8510791738
 H        -3.4283070108        5.2323211924        1.0830220897
 H        -3.6526514069        5.7485979849       -0.5276807209
 H        -7.9800002049        1.3278593465        1.3506422536
 H        -6.1985517984        1.4071734591        1.8306550187
 H        -6.7681428197       -3.1474423664       -0.1951436932
 H        -6.1781608382       -1.8805044924        1.0281951396
 H        -9.4641576836        1.2749317468       -0.4903404374
 H        -9.8228109624       -0.1855191384       -1.2588749859
 H        -8.8999672032        0.9278926711       -2.0679765949
 H        -7.0575964113       -2.0637658025       -1.6115364931
 H        -8.3465907993       -1.1333353587       -2.5067986649
 H        -6.6987421020       -0.6698742443       -2.5427670986
 H        -7.6130142638       -2.7325609569        2.8305826683
 H        -8.1415882996       -4.2207589654        1.9099524620
 H        -3.2925601505       -3.0693349753        1.3183145396
 H        -3.8596993130       -1.5880255948        0.9462071972
 H        -5.2105350410       -2.8087622012        5.7526149733
 H        -6.6838747343       -3.1059514623        4.8272531056
 H        -5.7930308122       -1.5132047562        4.7699849284
 H        -3.1562039701       -4.2324225763        3.0683363056
 H        -3.1448446257       -4.0095570761        4.7662898293
 H        -4.0616663683       -5.2670789888        3.8296889079
 H        -1.3918615770       -2.5055960914        1.0570697084
 H        -1.3421157266       -1.7878204597        2.7218358513
 H         2.2551827252        1.5696378893        0.9343787505
 H         2.9060014657        0.3390420701        1.8444745514
 H        -0.5809401037        2.6494591979        2.2601027849
 H        -0.6997451765        2.1054496989        0.5298186951
 H         0.7565627575        2.3175527239        1.4167617961
 H        -0.8940667304        0.4547146067        3.6499318063
 H         0.5503279851       -0.6253445188        3.6485232848
 H         0.8180004174        0.9182673829        3.5947786514
 H         4.5191237897        0.5431298345       -0.2631478388
 H         4.0475943797       -0.9468744596        0.2437734536
 H         5.4842649561       -2.7173712995       -4.2909971611
 H         5.8631364782       -0.9015713011       -4.4572972269
 H         2.2284559924       -2.9527812372       -1.5985862876
 H         3.6072774110       -2.7157827651       -0.6036352677
 H         3.8704992606       -3.6750714576       -2.0456117166
 H         3.3401479500       -0.4283290068       -4.3807183205
 H         3.6267094932       -2.3002018140       -4.3640557413
 H         2.0922376200       -1.6148138482       -3.9801284805
 H         8.1362330704       -1.2837213779       -3.2791815339
 H         8.0746146658       -2.4350643893       -4.4644354899
 H        11.6726951433       -4.7919687344       -3.5139034410
 H        10.8308671811       -6.3637286633       -3.9827466497
 H        10.5355590951       -2.2253886429       -3.0358098413
 H        11.2597591845       -3.4874442635       -2.1740020523
 H         9.9399069087       -2.6209495495       -1.3803144546
 H         8.4242469831       -5.1144595078       -0.8885117312
 H         8.7951908395       -6.2341355428       -2.0319924507
 H        10.0144594022       -5.4316460528       -1.2111708481
 H        12.3633037930       -5.9521632140       -5.6877105513
 H        10.6495021704       -5.8130576301       -6.3541318323
 H        11.9997815060       -1.1613830583       -9.5429641571
 H        11.9226960711       -2.8287719643      -10.3871373329
 H        10.4771081179       -1.7228743828      -10.2067395356
 H        13.8838007584       -2.3161651252       -8.9079572173
 H        14.4767187994       -3.4085222296       -7.7152144437
 H        13.4881104937       -2.0422708404       -7.2606744183
 H        12.6593971021       -4.9085655552       -9.6676215821
 H        13.5818896316       -5.6631663384       -8.3864030179
 H        11.7462842970       -5.7372128743       -8.4133066091
 Na       -4.3877206420        1.1419041977        1.6607968704
