155

 C        -7.2917478630        5.3938847465        8.2929962447
 C        -7.1394939693        6.7453449084        7.6522813731
 C        -8.0516612197        7.1900639831        6.4169553181
 C        -7.7665955131        6.4937488041        5.0903392867
 C        -7.1779478514        7.1902257375        3.8558955755
 C        -9.5608727286        6.7590235949        6.7561430210
 C        -8.0174624726        8.6429156940        6.2202997185
 O        -6.2935220065        7.4606362240        8.1031033224
 O        -7.7430948399        5.2681424634        5.1689412196
 C        -6.4932720888        5.9965326741        2.9891009520
 C        -6.2909904778        6.3386157887        1.5142555868
 C        -5.5535626016        5.2235753421        0.5460656727
 C        -5.7097407396        3.7060362574        1.1921488575
 C        -6.8226025322        2.8567034686        0.7765738619
 O        -6.8016877978        7.2920949627        1.0595439632
 O        -4.9144134650        3.4544589422        2.0086660828
 C        -6.2573029788        5.3470459652       -0.8215211429
 C        -4.0688374393        5.4436931900        0.3863526954
 C        -6.8966142907        1.3515845869        1.2327961386
 C        -6.6474964046        0.4357556831        0.0728191855
 C        -7.8700960586       -0.2158264308       -0.5760245239
 C        -8.2759663021       -1.3475567925        0.5570449124
 C        -7.1875362634       -2.3553886975        0.8338533564
 C        -9.0786727306        0.6929271828       -0.6549915528
 C        -7.6296665818       -0.9688878628       -1.9386441824
 O        -5.4569115616        0.1153865297       -0.2375007320
 O        -9.2972932502       -1.2114047599        1.2016470309
 C        -7.2994750076       -2.8478811025        2.2909933256
 C        -5.9933630046       -3.7510392004        2.6194646605
 C        -4.8641629180       -3.1075617914        3.5179612423
 C        -4.0916017634       -1.8814694847        2.7951854706
 C        -3.3466817101       -2.0608514251        1.4949138008
 O        -5.7728607814       -4.8745698056        2.2552873188
 O        -4.1069593273       -0.7808007684        3.3530993307
 C        -5.6144954370       -2.6369630880        4.8400275794
 C        -3.7330867146       -4.1739599563        3.7858285371
 C        -1.8535776376       -1.6814915634        1.8333456905
 C        -1.5154416798       -0.2098386944        1.5205677879
 C        -0.1817348199        0.3324565402        1.9100041346
 C         1.0940583537       -0.3044190507        0.8917439882
 C         2.4606228766        0.4887520043        0.8088256914
 C        -0.1586944639        1.8388088550        1.4812908535
 C         0.2194577380        0.2265404963        3.4066571112
 O        -2.3269483964        0.4819482824        0.9377440935
 O         0.9169164679       -1.3306531813        0.2921105616
 C         3.5456105219       -0.3044764034        0.0334568904
 C         3.2044502568       -0.2948032322       -1.4674548068
 C         3.5761702868       -1.4951788364       -2.4386625837
 C         5.2319420733       -1.4776189929       -2.5343962843
 C         6.0191636338       -1.7814769974       -3.9417612097
 O         2.5565491490        0.6645134625       -1.9598201709
 O         5.7815533531       -1.1101511660       -1.5040139866
 C         3.2406981204       -2.8272438550       -1.9412679523
 C         2.8642957128       -1.1853213103       -3.8142342765
 C         7.4167051268       -2.2204620286       -3.6223038394
 C         7.6702551871       -3.5884219718       -2.9141050743
 C         9.2672380690       -4.1977591043       -2.8611427915
 C         9.5338618718       -4.7052875730       -4.3333127408
 C        11.0347184963       -5.1841813641       -4.5480385960
 C        10.0297255061       -3.0293504484       -2.3300206840
 C         9.2242059939       -5.4693164193       -1.8986403013
 O         6.8632345414       -4.2629759386       -2.4112523578
 O         8.6421598895       -4.7078062257       -5.1827246492
 C        11.5232689289       -5.1756162596       -5.9418245171
 C        12.2060927286       -3.8822900877       -6.3454777731
 C        12.4493638926       -3.6523929420       -7.8730912587
 C        11.1736834521       -2.9948544715       -8.5616170673
 C        11.4497683619       -2.4421950637       -9.9272146635
 O        12.4276113180       -3.0105739877       -5.4376784660
 O         9.9625949472       -3.0517961758       -8.3182382744
 C        13.7067299145       -2.8658015249       -8.0513917771
 C        12.5805001759       -5.0704325161       -8.6257575009
 H        -7.0207715181        4.6283782280        7.5465717987
 H        -6.5902125704        5.4516103617        9.2161395567
 H        -8.3039633756        4.9994326500        8.5434033039
 H        -7.8415849361        7.7747254119        3.2745366374
 H        -6.3604813987        7.7121110453        4.4292076799
 H       -10.1252044988        7.3646622803        6.0483895687
 H        -9.9062312945        6.8251880948        7.7577709138
 H        -9.8288553514        5.7299198255        6.5166252439
 H        -8.8032742186        9.0570418373        6.9174163960
 H        -7.0078540466        9.0869786577        6.5020753766
 H        -8.1903636451        8.9676948171        5.2075028141
 H        -5.4805140676        5.9667408487        3.4439583680
 H        -6.8933640266        5.0897839363        3.3904145913
 H        -7.6380961862        3.3054786835        1.3133711811
 H        -7.3074967463        2.9092622776       -0.1841342853
 H        -5.6793785485        5.9232859775       -1.5753171710
 H        -7.1776655223        5.8682546494       -0.7304106449
 H        -6.3672977414        4.3774214512       -1.3618670963
 H        -3.8727799420        6.4591080865        0.1133069520
 H        -3.3799786805        5.1581417687        1.1867554015
 H        -3.7342653858        4.7809132851       -0.4566412252
 H        -7.8687569202        1.1516249220        1.5407598635
 H        -6.0831361532        1.1151403432        1.9538893312
 H        -7.1701001885       -3.0548856892        0.0611043383
 H        -6.2587401045       -1.8713619791        0.8384621292
 H        -9.0440734423        1.2022056891        0.3140736467
 H       -10.1278316861        0.2493635577       -0.5551488446
 H        -9.0903904536        1.4765756260       -1.5054622366
 H        -7.3129346480       -1.9308080412       -1.5553558043
 H        -8.5123018125       -0.8177633874       -2.5348434825
 H        -6.7691299725       -0.3312829305       -2.3007915459
 H        -7.4150714220       -1.9526713942        2.8846003663
 H        -8.0546444225       -3.4986895349        2.5797763413
 H        -3.6271776765       -2.9351325071        0.9568937252
 H        -3.8076290491       -1.1996456634        0.8164654065
 H        -4.8576617373       -2.3842148124        5.6245035617
 H        -6.1705261587       -3.5871049846        5.1452014421
 H        -6.3182993165       -1.8416237695        4.5817944558
 H        -3.6215794290       -4.9531925194        2.9383474166
 H        -2.7275512305       -3.7202865109        4.0357403516
 H        -4.0857145289       -4.9306226989        4.5690046432
 H        -1.1426351885       -2.1741626214        1.1818582589
 H        -1.5079529742       -1.9359803664        2.8060968788
 H         2.2138994056        1.4839802264        0.4823004734
 H         3.0438280005        0.6151770200        1.7597850605
 H        -1.0082712984        2.3166730411        1.9458828355
 H        -0.2597674843        1.9573829844        0.4011726096
 H         0.5866815950        2.5479904289        1.9778588795
 H        -0.1087524676        0.9853822985        4.0909691443
 H        -0.1413974082       -0.6773264516        3.8950755008
 H         1.2652421039       -0.0248964630        3.5321356157
 H         4.5287536844       -0.0663065281        0.3260600005
 H         3.5120792087       -1.3657010813        0.3872781310
 H         5.5578144460       -2.5687103806       -4.4420089867
 H         5.8833740507       -0.8644165303       -4.5133596938
 H         2.2213502674       -2.9777823077       -1.6969316039
 H         3.8127909185       -3.2603516383       -1.0763075985
 H         3.3791562176       -3.4693245054       -2.7224325256
 H         3.2186204838       -0.3499830804       -4.3635689589
 H         2.8298467284       -2.1448806724       -4.2910193231
 H         1.8656174800       -0.8818577717       -3.6632950950
 H         7.8328379626       -1.5060792961       -2.8573773366
 H         8.1528972200       -1.9694559173       -4.3717800132
 H        11.5953971849       -4.4099221645       -4.0792046879
 H        11.1740519091       -6.1185716139       -4.0302314284
 H        10.0102664006       -2.2993403685       -3.0876423340
 H        11.0383778943       -3.1975791532       -2.2226885332
 H         9.5822208707       -2.5681900215       -1.4232434856
 H         9.1152965440       -5.1746324072       -0.8090307870
 H         8.3093069083       -6.0262616227       -1.9946374118
 H        10.0233077163       -6.3112848061       -2.0377095718
 H        12.2698089237       -5.9912903555       -6.0454432484
 H        10.7341673182       -5.2224356333       -6.6774527355
 H        11.8170003773       -1.4660299127       -9.8083641148
 H        12.0202011708       -3.0413387874      -10.5999831946
 H        10.4752786908       -2.2522093698      -10.4081720789
 H        14.0376353075       -2.8758549077       -9.0531475329
 H        14.6002578090       -3.1573103847       -7.5857085138
 H        13.4442040502       -1.8186033965       -7.8857275269
 H        12.6477765834       -4.8367000099       -9.6969466448
 H        13.5426272639       -5.3857989194       -8.3881321626
 H        11.9254061315       -5.8757291700       -8.3554595343
 Na       -4.0513857201        1.1597454754        1.7679704144
