155

 C        -7.1455693248        6.2749210909        7.9038789198
 C        -7.4695478148        7.5417534824        7.1581724547
 C        -8.5121002428        7.3792598865        5.9453506085
 C        -7.8044084445        6.2820698474        5.0101199889
 C        -6.6849234434        6.9541907340        4.2207801409
 C        -9.7884221109        6.7710796631        6.5469425131
 C        -8.7560992526        8.8929255937        5.5174482887
 O        -7.0302264552        8.5916081009        7.5077937159
 O        -7.8909724875        5.0334578839        5.0572539550
 C        -5.7880363315        5.8984531791        3.4758840678
 C        -5.9529443353        6.0453752371        1.8090113013
 C        -5.4631414620        4.8976405163        0.9557522157
 C        -5.7598499127        3.5231302674        1.4955063852
 C        -7.1902802803        3.2083474167        1.7910629412
 O        -6.4297643379        7.0195172607        1.2411415502
 O        -4.7910238386        2.7598333447        1.9570760777
 C        -6.1284293402        5.1098085480       -0.5111830233
 C        -3.7793728577        5.0740593123        0.8958275739
 C        -7.5935120939        1.7542923735        2.0200115396
 C        -7.0829089629        0.8455930686        0.7833396082
 C        -8.1492934440        0.0455977161       -0.1036507948
 C        -8.7449606636       -1.0184416285        0.9956619467
 C        -7.8991847899       -2.1486755609        1.4402003240
 C        -9.2710837051        0.7798068808       -0.7342154387
 C        -7.4039265968       -0.7509526693       -1.2584284667
 O        -5.9579152547        0.4243176061        0.7167756701
 O        -9.8579868920       -0.7412136384        1.4031555995
 C        -7.0434537577       -1.9181179405        2.7380022700
 C        -6.2077441711       -3.2833936126        3.0027937413
 C        -4.6554239904       -2.9765090858        3.6634440837
 C        -3.8506404203       -1.8165769797        2.8113817683
 C        -3.0038567050       -2.0504510043        1.5885356928
 O        -6.7183914749       -4.3268207143        2.8605568359
 O        -3.9992482314       -0.6199148441        3.1276053283
 C        -4.8311584880       -2.3908159791        5.1447114011
 C        -3.8093638801       -4.3003268042        3.7273721479
 C        -1.5296623068       -1.9078741365        2.0643652085
 C        -1.0958106892       -0.3697580259        1.6944781854
 C         0.3411350458        0.0591394198        2.1341379632
 C         1.4582121052       -0.6437575000        1.1058248847
 C         2.9508366503       -0.2348649247        1.0941352677
 C         0.4825826110        1.5912155077        2.0075620166
 C         0.6898123361       -0.5529726136        3.5367791749
 O        -1.7636815294        0.4339009173        0.9691462863
 O         0.9418250623       -1.4272296800        0.3577205073
 C         3.8253538511       -0.9079476614        0.0251688904
 C         3.3595443234       -0.4618942421       -1.3472822351
 C         3.5460071137       -1.5104025120       -2.5852022235
 C         5.0967800222       -1.7282888720       -2.7988782244
 C         5.5999030310       -2.2320969286       -4.1346278518
 O         2.9544956528        0.6648360506       -1.5741518464
 O         5.8476393794       -1.6055804871       -1.8108833965
 C         2.8826684418       -2.8138479041       -2.3873833751
 C         2.9798186219       -0.8086854666       -3.9393998477
 C         7.0135273093       -2.6595662150       -3.9418302603
 C         7.3651866368       -3.9692609743       -3.2351702679
 C         8.9330080564       -4.2990980584       -3.0875888965
 C         9.4280655488       -4.7727677079       -4.5760757397
 C        11.0284903986       -5.0111451840       -4.8763973549
 C         9.7282023064       -3.1057189965       -2.5396177876
 C         9.2272220047       -5.5073381402       -2.1319794353
 O         6.5362638293       -4.7754559638       -2.9225571329
 O         8.4918709609       -4.9569059149       -5.3652470393
 C        11.2989851612       -4.9447134595       -6.4280200517
 C        12.1311784937       -3.6979627856       -6.7884116519
 C        12.6161454271       -3.4586288850       -8.3999473330
 C        11.4197183124       -3.2447486688       -9.3694560776
 C        11.6837939768       -2.6582622973      -10.7673405323
 O        12.2747602262       -2.7274515484       -6.0196986308
 O        10.2775543652       -3.2760209382       -8.9090149895
 C        13.6038833987       -2.2993061628       -8.4337051560
 C        13.2112183828       -4.8659602759       -8.9323484389
 H        -6.1424019874        6.4446160728        8.2710397688
 H        -7.9237367520        6.1395528586        8.7733807274
 H        -7.1998672827        5.3704846325        7.3969393747
 H        -6.9584686322        7.6943735664        3.3595718722
 H        -6.2169548424        7.6843669848        4.9258124284
 H       -10.5656658299        6.7153590571        5.8006745793
 H       -10.2717696157        7.1872122040        7.3342540488
 H        -9.5264642957        5.7800881866        6.8253228093
 H        -8.3113726453        9.0968742786        4.5320810504
 H        -9.8656038138        8.9989498076        5.2213238363
 H        -8.5337408912        9.7434191648        6.1964559528
 H        -4.7305904500        5.9831367073        3.6113975682
 H        -6.0004752875        4.8133738878        3.8619452567
 H        -7.4542291744        3.7527351386        2.7264431295
 H        -7.9780480681        3.5208774530        0.9864110261
 H        -6.7595551317        5.9049795596       -0.4220891220
 H        -6.6786602107        4.3051478428       -0.9286459808
 H        -5.2522166234        5.2993720168       -1.1613666417
 H        -3.3329790878        6.0452711159        0.8181361670
 H        -3.3620168459        4.6093935641        1.8071087873
 H        -3.4673568438        4.6084726569       -0.0081486140
 H        -8.7140927791        1.7285834015        2.2437626731
 H        -7.0800246371        1.5343127512        2.9350478007
 H        -8.5631687873       -3.0183487943        1.5525624818
 H        -7.2158768445       -2.5151795108        0.6648545975
 H       -10.1399570730        1.0716798390       -0.1797668763
 H        -9.7810864070        0.0194101750       -1.4832038575
 H        -8.8673375821        1.5791682371       -1.3582409136
 H        -6.4017477678       -0.9198173558       -0.8125841937
 H        -7.9313717356       -1.6743548012       -1.1493203894
 H        -7.3936410064       -0.0729846937       -2.0467630913
 H        -6.3578350976       -0.9721213916        2.5895883493
 H        -7.6508588483       -1.8045654705        3.5789834799
 H        -3.0330823079       -3.0618414856        1.0777181373
 H        -3.3201790432       -1.3289531004        0.8347641257
 H        -3.8796547941       -2.6430530522        5.7554216630
 H        -5.6257592218       -2.8784134509        5.7146316826
 H        -5.0750620251       -1.3986111559        4.9879596931
 H        -3.1782783358       -4.2087646763        2.8227821027
 H        -3.0603642215       -4.5650769636        4.4743497709
 H        -4.4979315186       -5.0716384267        3.7328766612
 H        -0.8161356128       -2.6166424666        1.6109662444
 H        -1.3337455217       -1.8780860929        3.1163297916
 H         2.9076847813        0.8654870805        0.7838415720
 H         3.3150113888       -0.3097362585        2.1099150452
 H        -0.1363206706        2.1674007549        2.6477641354
 H         0.5307765398        2.0097134617        1.0173354754
 H         1.5519716850        1.6974514704        2.3863233048
 H         0.0958608729       -0.2260630803        4.3964951599
 H         0.7897669405       -1.5774294554        3.7093832522
 H         1.6110343641        0.0128244334        3.7883527783
 H         4.9154214343       -0.6675602403        0.1900160971
 H         3.6789915187       -1.9405943840        0.2254135267
 H         4.9223794502       -2.9732314558       -4.5499049436
 H         5.6455519556       -1.4180874540       -4.8237552864
 H         1.8330402336       -2.7716360333       -2.2368687470
 H         3.2600445270       -3.2431790036       -1.4582376041
 H         2.9353999300       -3.6253179632       -3.0561101141
 H         3.6608021146        0.0115769254       -4.2626778587
 H         2.9326934493       -1.4492038529       -4.7970533599
 H         1.9600471924       -0.4340419701       -3.7327921624
 H         7.4843495582       -1.8399310465       -3.3489889188
 H         7.6211794042       -2.4023535142       -4.8917830475
 H        11.5570780915       -4.2021897351       -4.2660209879
 H        11.4116372810       -5.9266533989       -4.4032206467
 H         9.8206183160       -2.3670407919       -3.2545314232
 H        10.5505598105       -3.3666333574       -1.9090414501
 H         8.9154054493       -2.7337333597       -1.7673466910
 H         8.5916467423       -5.4823483894       -1.1593962193
 H         9.1364140056       -6.4998028113       -2.6097922283
 H        10.2358854198       -5.4069522052       -1.6620262687
 H        11.4980747938       -5.9766002555       -6.9621953783
 H        10.3426957465       -4.5627177627       -6.7690918488
 H        11.7515991911       -1.6133469911      -10.8491494185
 H        12.4036228193       -3.0941968588      -11.3582933485
 H        10.7865712659       -3.0694896538      -11.2367712345
 H        13.8433296515       -1.9041693274       -9.4250702821
 H        14.4884907228       -2.4257921948       -7.8699629613
 H        13.0658239337       -1.4389883511       -8.0100508670
 H        13.2270002290       -4.9067838513       -9.9930975289
 H        14.1307920084       -5.2778064720       -8.5459248340
 H        12.3819853393       -5.5151910672       -8.7117848390
 Na       -3.8531103116        0.8693254173        1.4961749375
