155

 C        -7.0275103410        6.5687864392        7.9813235330
 C        -7.6076085852        7.7511215721        7.1555312376
 C        -8.5589757705        7.4098097991        6.0428838600
 C        -7.6479108545        6.6020887261        4.9522329407
 C        -6.3330463254        7.2837497228        4.3980143503
 C        -9.7629297051        6.5451394924        6.3973960004
 C        -9.1312429624        8.6845487198        5.1763427005
 O        -7.1631830335        8.8933019629        7.2866794206
 O        -7.9966635849        5.5218006392        4.5732890046
 C        -5.2993157335        6.3868782205        3.5998521836
 C        -5.9848453737        6.1827905625        2.1191692284
 C        -5.3666219528        4.9705074217        1.1411462238
 C        -5.8605789456        3.4734477264        1.7376016240
 C        -7.3645849988        3.2194695018        1.5795140298
 O        -6.6467924694        7.0595899118        1.5861568024
 O        -5.1102000910        2.7259174640        2.2068408253
 C        -5.9250212870        5.0341657589       -0.3022693318
 C        -3.8391661176        5.0772139058        1.1034499403
 C        -7.7363052960        1.6339862653        1.8205404254
 C        -7.1931436301        0.7061126294        0.7760461463
 C        -8.2544738852       -0.1102089760        0.0454502279
 C        -9.0331302793       -1.1091011492        1.1383875500
 C        -8.1918240802       -2.2989561510        1.7333578549
 C        -9.2929240516        0.9228384616       -0.5210939401
 C        -7.6407241802       -1.0046590406       -1.0779144797
 O        -5.9496393041        0.5029893590        0.5419618802
 O       -10.0649080493       -0.8216622898        1.6590748214
 C        -7.2994867975       -1.9018029346        2.9353481061
 C        -6.2824075188       -3.0120142828        3.0651725376
 C        -4.8050946995       -2.8314259879        3.5655218196
 C        -3.8374992119       -1.6926087945        2.9692462203
 C        -2.8399032422       -2.1483543439        1.7551205351
 O        -6.5767026139       -4.1992970368        3.0553846839
 O        -3.7448035606       -0.6002999699        3.4824644964
 C        -5.0723029485       -2.5010016851        5.0755829847
 C        -4.1893767337       -4.2597540709        3.5044209162
 C        -1.3538730941       -1.9911611213        1.8724967406
 C        -0.8712280618       -0.4831285946        1.7186278595
 C         0.6339812690       -0.1560410886        2.2953052956
 C         1.5523442328       -0.7555541507        1.0444863859
 C         3.1251722023       -0.2793986880        1.1873021184
 C         0.8320375470        1.3761890252        2.2001597134
 C         1.0995641588       -0.5943227616        3.6369553747
 O        -1.4177845973        0.4153344832        1.1702494566
 O         1.1776516461       -1.5979411903        0.2580177651
 C         3.8584555744       -1.1208371823       -0.0330098683
 C         3.4174974442       -0.4688940926       -1.4098471817
 C         3.6344006549       -1.4015452308       -2.6674317636
 C         5.1092872919       -1.7858518654       -2.7623382378
 C         5.4800872910       -2.4636667782       -4.1626220116
 O         2.7477609773        0.5671302969       -1.4719883214
 O         5.8144628009       -1.7721792482       -1.8013604202
 C         2.7748902372       -2.7144579786       -2.4441999049
 C         2.9396509795       -0.6245220593       -3.7764948311
 C         7.0112971818       -2.8444772063       -4.3110498685
 C         7.4404269725       -3.9852787822       -3.4229841304
 C         8.8974482714       -4.3716229462       -3.3306102706
 C         9.4516081020       -4.7803965635       -4.8068435508
 C        11.0313179649       -4.8831070859       -4.9936040942
 C         9.6386971179       -3.1560229447       -2.5949800996
 C         9.1435227936       -5.6966865255       -2.5311918597
 O         6.5302848992       -4.6641135458       -2.8896741268
 O         8.6115588393       -5.1658767964       -5.5499857866
 C        11.3525062849       -4.7950330453       -6.5190800925
 C        12.0993142950       -3.4614644179       -6.9003400549
 C        12.4768203793       -3.3907631398       -8.4790442817
 C        11.2829571277       -3.2669372703       -9.5194510154
 C        11.7951216498       -2.8442451696      -10.8782545045
 O        12.4972538237       -2.6956529107       -6.1117206214
 O        10.1418111183       -3.4241941185       -9.2434918553
 C        13.5478922625       -2.2825300119       -8.5663176250
 C        13.2332537826       -4.7124050741       -8.7706263542
 H        -6.6101993127        5.8099387503        7.3051599077
 H        -6.3092772190        6.8592806367        8.7053999311
 H        -7.9018577240        6.1498602087        8.4708078114
 H        -6.6375634974        8.1108865632        3.7699616779
 H        -5.7596628228        7.9257119512        5.1346793286
 H       -10.3661617200        6.4159245710        5.4787824767
 H       -10.5435111595        7.0149061421        7.1285626815
 H        -9.6031715571        5.4726224562        6.6972504784
 H        -8.7096941266        8.8527869721        4.1893513996
 H       -10.1426645401        8.6408298482        4.9400848436
 H        -8.9689247711        9.6114280623        5.7094696893
 H        -4.2383195620        6.7604768925        3.5484952012
 H        -5.2863211442        5.4483152659        3.9999355446
 H        -7.9844453778        3.8340590836        2.2492081892
 H        -7.7211102832        3.3421632668        0.6460259083
 H        -6.9840955320        5.4697625040       -0.3143930617
 H        -5.9291327812        3.9353631806       -0.5531229148
 H        -5.2809836149        5.5495299816       -0.9604777290
 H        -3.5284168479        6.0339768046        0.6745796128
 H        -3.4503120264        5.0073083118        2.0722344039
 H        -3.4595835090        4.4040342490        0.3527875794
 H        -8.7875967391        1.5615828645        2.0170034893
 H        -7.2925689373        1.3733357501        2.8117414177
 H        -8.9947958090       -3.0801197387        1.7836891102
 H        -7.4121270316       -2.7847650516        1.0811521653
 H        -9.5583532423        1.5279827934        0.3622291642
 H       -10.1350606697        0.5101959956       -0.9524297457
 H        -8.9319447791        1.6365688651       -1.2143068033
 H        -7.1274762414       -1.7802478626       -0.6210996288
 H        -8.5420358085       -1.3425487185       -1.5864532386
 H        -7.0065138592       -0.2437290313       -1.5003064885
 H        -6.7863929573       -1.0052690744        2.7626695382
 H        -7.8557606534       -1.8595570198        3.9596178694
 H        -2.9409460145       -3.1706862525        1.4582923830
 H        -3.1946926185       -1.4797757270        0.9582624728
 H        -4.2492945714       -2.5998319887        5.6767669861
 H        -5.7965600704       -3.2327540666        5.3724367683
 H        -5.5368400970       -1.4736222833        5.1249974297
 H        -3.9558320755       -4.6783271366        2.5521524870
 H        -3.2008006877       -4.2476545265        4.0029474669
 H        -4.7679505969       -4.7974514625        4.2362234803
 H        -0.8324952091       -2.4486009443        0.9792051990
 H        -0.8211289483       -2.4016456670        2.7942344665
 H         3.2198197453        0.7527379848        0.9616602567
 H         3.5094048282       -0.5229594342        2.2034621244
 H        -0.1600621099        1.9318794414        2.2781429176
 H         1.3047125621        1.6642499573        1.2591075308
 H         1.5437021886        1.6366013968        2.9122426352
 H         0.8132420971        0.0620123998        4.4709562323
 H         0.6100051345       -1.5945475449        3.8710026079
 H         2.1669655724       -0.6774717288        3.7768458808
 H         4.9237929097       -1.1796655000        0.2146676562
 H         3.4654635817       -2.1045382144        0.2444298310
 H         4.9175771494       -3.3824064203       -4.4857978160
 H         5.1970039960       -1.6199094162       -4.8891234341
 H         1.6661902606       -2.5523207165       -2.2176200374
 H         3.0918635270       -3.4845949742       -1.7875829669
 H         2.6747029571       -3.3406694067       -3.4433440223
 H         3.4947470317        0.2311159706       -4.1064450418
 H         2.8925901838       -1.2384522956       -4.7225937701
 H         1.9038079327       -0.5582744575       -3.4461320293
 H         7.7606124452       -2.0425056109       -4.3149780410
 H         7.2788421246       -3.3119304256       -5.2464362344
 H        11.6739139089       -4.1403357108       -4.5166058651
 H        11.3854353835       -5.8101141374       -4.4698016571
 H         9.7108183352       -2.2820335800       -3.3420916211
 H        10.6338971736       -3.6293616338       -2.3559802250
 H         9.2192296184       -2.8977477456       -1.6745763221
 H         8.9829420734       -5.4719108281       -1.5529116274
 H         8.5206192798       -6.5005684405       -2.8972767525
 H        10.1424240156       -5.9809799432       -2.5144571887
 H        11.9491417829       -5.5425106356       -6.8943050978
 H        10.3485736344       -4.8162165877       -7.0401442866
 H        11.9148499827       -1.7481980926      -10.5431305320
 H        12.8745035855       -3.1475573052      -11.1160127379
 H        11.2597049968       -3.0103734740      -11.8160081458
 H        14.1645356463       -2.3240188336       -9.4831092094
 H        14.2464287124       -2.4612144963       -7.6663385867
 H        13.2728350028       -1.2240441037       -8.4587754348
 H        13.9138355891       -4.4855952694       -9.6086846943
 H        13.8972402243       -4.8680991894       -7.9003352967
 H        12.7177658118       -5.6334527181       -9.0289082936
 Na       -3.7313700753        0.8233454734        1.5021057833
