155

 C        -9.0572948860       10.3930549736        3.6578226090
 C        -8.8921041263        8.7632720517        3.5792404932
 C        -8.1753444098        7.9183680569        4.9130350791
 C        -6.6952373414        8.3094394716        4.7770312599
 C        -5.7928686545        8.0567438935        3.5808277770
 C        -8.6187447922        8.5154134061        6.2289637233
 C        -8.4905253424        6.3798720010        4.5650582552
 O        -9.3022559716        8.0779011975        2.6946838175
 O        -6.0511892254        8.8162384632        5.7108030824
 C        -4.4586703711        7.4780773765        3.9997663868
 C        -4.3932058227        5.9220001066        4.0546027090
 C        -3.2099720945        5.0288251005        3.1899450388
 C        -3.9080789397        3.7646377947        3.0066001753
 C        -4.5714674679        3.2642020077        1.7230849330
 O        -5.2472682295        5.2276812141        4.6636057554
 O        -3.7536330144        2.8645131858        3.8116150722
 C        -2.9840340350        5.7732768206        1.8851148334
 C        -1.9158133703        4.7714210979        4.0010527263
 C        -6.0588429912        2.8981339486        2.0121131808
 C        -6.3614443048        1.3991262604        2.0253753121
 C        -7.7477662700        0.8830318683        2.2954618650
 C        -7.7019778750        0.0305217327        3.7658160413
 C        -7.0002977415       -1.2562670172        3.7352324505
 C        -8.9261806353        1.9603335397        2.3403139228
 C        -8.1350475956       -0.1352375868        1.2108516461
 O        -5.4882404302        0.6218358311        1.5892547684
 O        -8.1938771387        0.4054276786        4.8059796915
 C        -7.0223495863       -1.9715982906        5.0745483004
 C        -5.6520456033       -2.9500594515        5.2696770748
 C        -4.2394905270       -2.4203108658        5.7391325799
 C        -3.7857062151       -1.5370845286        4.6149476141
 C        -3.3834271865       -2.3373925687        3.3274527744
 O        -5.7706855079       -4.0981547514        4.8385568262
 O        -3.9082446638       -0.3559916112        4.7198052527
 C        -4.4992898566       -1.3939546943        6.9961441117
 C        -3.3140253092       -3.5922151759        6.0438120824
 C        -1.8294546936       -2.4546635832        3.1772971145
 C        -0.9131531595       -1.2374570418        2.6286763743
 C         0.4093961628       -1.6394221243        2.0341239828
 C         0.3082664630       -2.7888192624        0.8120804805
 C         1.6737604088       -3.2655036913        0.3509900865
 C         1.1550812780       -0.3076892492        1.5593818406
 C         1.2452746972       -2.3727166127        3.1584311456
 O        -1.3093653561       -0.0422847025        2.6578980574
 O        -0.8119710640       -3.2308325065        0.6859130543
 C         1.4442032065       -3.5771632402       -1.0915988276
 C         1.7313383298       -2.2900095697       -1.9997260455
 C         2.1972398446       -2.4705983676       -3.3526968427
 C         3.9267955271       -2.5706847682       -3.3831869829
 C         4.6878814302       -2.4467906225       -4.7478839491
 O         1.7570371760       -1.0932405012       -1.5414587146
 O         4.4854708056       -2.9124504698       -2.3998387756
 C         1.8730983930       -3.8890147072       -3.9716455660
 C         1.8929801500       -1.3252468047       -4.3235885494
 C         6.1739083503       -2.7346157214       -4.5928736132
 C         6.4064630749       -4.1837228520       -5.1853849961
 C         7.8748879810       -4.6527319278       -5.4311879840
 C         8.3124858157       -3.7508474517       -6.6889467553
 C         9.9307849334       -3.7865899966       -7.0448237478
 C         8.8273018661       -4.5131566154       -4.2742298447
 C         7.8995403773       -6.1114727198       -6.1244388902
 O         5.4127652876       -4.7835345955       -5.4956181074
 O         7.4709701702       -3.2688081330       -7.4582200459
 C        10.0307701252       -3.3373791746       -8.5766522940
 C        11.3185412741       -2.5987984413       -8.9389609133
 C        12.3705562355       -3.4520705971       -9.6617378494
 C        11.7784111402       -3.7226381321      -11.2570927936
 C        10.7731439329       -2.6726367651      -11.8510594143
 O        11.3577390878       -1.3992670858       -9.2166846630
 O        12.1735984370       -4.6365809506      -11.8786972412
 C        13.7044119226       -2.6035342471       -9.9294896386
 C        12.8356938742       -4.8445172314       -9.2182796337
 H        -8.6521082817       10.8183357912        2.8229079997
 H       -10.0740154207       10.7202196500        3.8323995790
 H        -8.3868340209       10.8199102427        4.4259284078
 H        -6.3199375447        7.7511655038        2.5673036304
 H        -5.6646963923        9.0233505924        3.1946860198
 H        -8.6225544174        7.8821917910        7.1338379088
 H        -9.6450205475        8.8877754856        6.0660139797
 H        -7.9541865505        9.3375250426        6.4649243916
 H        -9.3133680942        5.9908587392        5.1133895081
 H        -8.8059933418        6.3312820049        3.5303958688
 H        -7.6811335458        5.7661605583        4.8154605697
 H        -3.6974817786        8.0013288566        3.2919469142
 H        -4.2680616757        7.8098727324        5.0378202476
 H        -4.5022227089        4.0027139466        0.8995495747
 H        -3.9790203273        2.4116788587        1.3140128481
 H        -2.3562873517        6.6129739467        2.2173694635
 H        -3.8299407319        6.2778672615        1.4691118188
 H        -2.4884219429        5.2558362847        1.1681428355
 H        -1.2029112077        4.1896653027        3.4248697536
 H        -1.4967404441        5.7492362024        4.3385268063
 H        -2.1267831617        4.0030795511        4.7283970426
 H        -6.7472547691        3.4643837467        1.4263105113
 H        -6.2780502414        3.4390280136        2.8933787647
 H        -7.4393340445       -1.9807774555        3.0194647505
 H        -6.0376417855       -1.1149957313        3.3189616304
 H        -9.0474151957        2.4694421770        3.2977990632
 H        -9.8354579734        1.3435125436        2.0921813783
 H        -8.9181748101        2.6596344267        1.5784907850
 H        -7.2595272416       -0.6766696001        0.9605507461
 H        -8.7292266334       -0.9694593553        1.4900109235
 H        -8.5542265222        0.2749614731        0.2976970617
 H        -7.0973334681       -1.5358454403        6.0165500113
 H        -7.9541765962       -2.4548707145        5.1062895033
 H        -3.7292049222       -3.2705446713        3.6722283459
 H        -3.8954174589       -2.0114950731        2.3748943001
 H        -3.6407555912       -1.0381549583        7.4511473308
 H        -4.8113694169       -2.0663124820        7.8093128155
 H        -5.1376374140       -0.5060221305        6.9199022940
 H        -2.2974601290       -3.2830103323        6.0058493388
 H        -3.4942603721       -4.0979191926        7.0625904267
 H        -3.5759919032       -4.3154325934        5.3734045167
 H        -1.6613141602       -3.1734232110        2.4622385334
 H        -1.5067727084       -2.8833461599        4.0817483919
 H         2.3689491900       -2.4373164786        0.5435678602
 H         1.9103555393       -4.1109128641        1.0268944077
 H         0.4714236668        0.2115512939        0.8179316112
 H         1.9333310516       -0.4931308144        0.8361993302
 H         1.6129707686        0.3047405311        2.3009938799
 H         1.3082549161       -1.7405209743        4.0781780155
 H         0.8103961829       -3.3006662505        3.5217403452
 H         2.2906254254       -2.5237650073        2.7738836187
 H         2.0895146354       -4.4387739886       -1.4305700412
 H         0.4149729475       -3.8157363766       -1.1836694494
 H         4.3896863491       -3.2613302849       -5.3862590517
 H         4.5724685440       -1.4580023311       -5.2612150766
 H         0.8504851067       -4.1559894033       -4.0370725898
 H         2.3554933736       -4.6905338691       -3.3946346750
 H         2.3685023914       -3.9196708541       -4.9470230567
 H         2.2250148874       -0.3383891625       -3.9979691638
 H         2.3648490502       -1.4433762240       -5.3139915000
 H         0.8285171572       -1.2897408331       -4.5764202777
 H         6.3512543147       -2.6511724032       -3.4666621214
 H         6.8233037384       -2.0359958197       -5.1517888252
 H        10.2824118905       -2.9215947150       -6.4806375593
 H        10.5115311400       -4.7271719675       -6.7646447668
 H         8.9174628804       -5.3824949523       -3.4873590119
 H         8.6350088974       -3.6388160076       -3.6285855021
 H         9.8366163189       -4.2755854470       -4.6599444918
 H         8.2947747503       -6.8565118641       -5.4572272316
 H         6.8562824998       -6.4235034262       -6.5427643843
 H         8.6462950733       -6.1344746233       -6.9554754159
 H         9.9753879465       -4.2637990167       -9.1805420591
 H         9.0506417222       -2.7879887399       -8.9210820449
 H        10.5817508408       -2.9341674373      -12.9235794477
 H         9.8945195448       -2.7061859072      -11.2081699266
 H        11.2917324978       -1.7706335367      -11.8514221481
 H        14.5530915348       -3.0091151643      -10.5026404657
 H        13.8778392536       -2.3113090347       -8.9658971763
 H        13.3560156347       -1.7386916502      -10.5124834892
 H        13.1802186268       -5.3645902607      -10.0594988736
 H        13.3478613658       -5.0686641735       -8.2600231292
 H        11.8625952574       -5.4034789748       -9.1072989936
 Na       -3.5415631952        0.7159317943        2.8616628154
