155

 C        -8.9375035453        9.6536735449        2.6530306014
 C        -8.2643234828        8.3423115524        2.9743211380
 C        -7.7822092300        8.2516583004        4.4825783403
 C        -6.3285356287        8.8695441194        4.2533754987
 C        -5.1902528051        7.8745276830        3.9088120523
 C        -8.7829763727        8.9528047728        5.2914815659
 C        -7.5970782439        6.7664788736        4.8667249687
 O        -8.0497104303        7.4512256982        2.1266849905
 O        -6.1921125312       10.0529579821        4.1656404031
 C        -4.4012194648        7.0942937869        5.0508857320
 C        -4.3981407421        5.6016252615        4.8326195017
 C        -3.1676779459        5.0188525158        3.9927724878
 C        -3.6150733482        3.7412187553        3.0609074475
 C        -4.9427064489        3.8362456568        2.3481558175
 O        -5.4145515369        4.9964971305        4.9531469689
 O        -2.8730295149        2.8001226335        3.0224831383
 C        -2.5615990478        6.0750306069        3.0247448491
 C        -2.1682341546        4.6675299294        5.0987347565
 C        -6.0588860525        2.9321413040        2.9440955375
 C        -6.3736403572        1.4939217075        2.4429067113
 C        -7.7544971150        0.9200930100        2.7129750518
 C        -7.8265247257        0.3168156308        4.2519831167
 C        -7.3100181423       -1.1771956647        4.5876599293
 C        -8.9420018346        2.0858113070        2.4902323105
 C        -8.0172884983       -0.1360439292        1.6345806838
 O        -5.5201440813        0.7503369833        1.9866290034
 O        -8.3029636624        0.9434482054        5.1335938863
 C        -6.6350402592       -1.2249379182        5.9391893498
 C        -5.8568277476       -2.5466282224        6.0193448694
 C        -4.0916121204       -2.2796197455        6.4995710779
 C        -3.5750748779       -1.6068009025        5.2121113888
 C        -2.7706338344       -2.5361594055        4.1779783127
 O        -6.0346776532       -3.6096022835        5.5614117505
 O        -4.0429730676       -0.5302372395        4.9240271134
 C        -4.0708344289       -1.1050361856        7.7000936666
 C        -3.4844821691       -3.6005303792        6.8808491597
 C        -1.1952201729       -2.3023830906        4.0940731342
 C        -0.7444886572       -1.7293921257        2.6204938900
 C         0.7097335944       -1.8532343987        2.1268667290
 C         0.4676801937       -2.3561433684        0.4913616324
 C         1.3244042477       -3.6417304903        0.0049677687
 C         1.3237464505       -0.4127720184        2.1486781596
 C         1.5531373152       -2.7903649980        2.8955157762
 O        -1.5191358026       -0.8936775760        2.0319554920
 O        -0.2151072045       -1.5884731190       -0.0641069173
 C         0.9870585323       -3.9768449257       -1.4108876277
 C         1.6381040639       -2.9402991944       -2.3617876717
 C         2.0779686350       -3.3337093786       -3.8910507213
 C         3.6823680282       -3.2718590383       -3.6322628013
 C         4.5103363725       -2.1734946743       -4.5025147355
 O         1.8192899183       -1.7974502508       -2.0266827977
 O         4.0747621160       -3.9420721458       -2.7027375394
 C         1.6202197478       -4.7353777536       -4.1533035922
 C         1.4751291064       -2.3234452312       -4.8612167469
 C         5.9201918234       -2.4462466330       -4.8426401224
 C         6.1224705409       -3.7505138863       -5.5190993784
 C         7.4654494311       -4.2848625261       -6.2024173928
 C         7.8959955816       -3.3328377386       -7.3114932793
 C         9.3084806079       -3.3656142045       -7.7954730260
 C         8.5783474864       -4.3269373403       -5.0520283783
 C         7.2309392193       -5.7684445679       -6.6917053662
 O         5.1752785244       -4.5330355773       -5.4557554167
 O         7.1465537522       -2.5219485613       -7.7785071087
 C         9.6582704172       -3.1300390219       -9.2831669577
 C        11.2036870904       -2.8185865369       -9.2440884798
 C        12.2569822041       -3.3612737189      -10.2709022697
 C        11.6409057703       -3.6408340868      -11.6253128918
 C        11.7815538385       -2.7307537529      -12.8232232643
 O        11.5995734107       -2.1211055684       -8.3934956591
 O        10.6576483873       -4.4036086872      -11.6563562273
 C        13.5276383333       -2.5042466857      -10.3581985169
 C        12.6131249540       -4.6687952873       -9.4958461467
 H        -8.7250523239        9.9960238021        1.5675198276
 H       -10.0028166751        9.7085031667        2.6433157890
 H        -8.6320943559       10.4437367437        3.3012385293
 H        -5.3133134725        7.3347142491        2.9916402420
 H        -4.4143172263        8.6628053729        3.4945259250
 H        -8.9940588618        8.4714491269        6.2005250471
 H        -9.6986206079        8.8576559039        4.7566817625
 H        -8.5326638895       10.0079589071        5.6213905475
 H        -8.5035272179        6.1060067823        5.1076262328
 H        -6.9658465277        6.2536220679        4.0828197566
 H        -6.9619800332        6.6490101511        5.7467009543
 H        -3.3795081037        7.4382927875        5.2723605559
 H        -4.9670275312        7.1655522235        5.9419259958
 H        -5.1985583859        4.8503312854        2.3601057593
 H        -4.6021575963        3.6786241450        1.2937301682
 H        -2.4741014943        7.0694004318        3.4691470249
 H        -3.2810411810        6.1329132712        2.1306175959
 H        -1.5573821382        5.7495453054        2.5272250856
 H        -1.3058805737        4.4126193474        4.5985248798
 H        -1.8850428293        5.3913490489        5.8948195633
 H        -2.7255098443        3.8744582917        5.6299181020
 H        -6.8961891702        3.5243466618        2.9368416623
 H        -5.6469770058        2.7029344254        3.9283024920
 H        -8.0863774791       -1.8328703699        4.4983986308
 H        -6.6855629193       -1.3778735560        3.7459912910
 H        -9.1188820590        2.7869146012        3.3271766950
 H        -9.8103638217        1.4433551294        2.3101762609
 H        -8.7017779742        2.7098352883        1.6038566347
 H        -7.2194336273       -0.8647595197        1.5162601707
 H        -8.9692593959       -0.6687469812        1.6364539229
 H        -8.0547641437        0.2623326843        0.5757907341
 H        -5.8426403360       -0.5618425470        5.8612159056
 H        -7.1998185173       -0.9943286158        6.8437516065
 H        -3.0546880827       -3.6096554688        4.3265963959
 H        -3.2747515656       -2.4520542381        3.1235469365
 H        -3.0840017979       -0.9983618887        8.2020247996
 H        -4.9217053110       -1.2754181533        8.3810657118
 H        -4.3614494521       -0.1481649010        7.2639131340
 H        -2.4066351376       -3.7595502345        6.6318630880
 H        -3.5884636574       -3.5440200637        7.8897424293
 H        -4.0827968879       -4.3536158310        6.3314688661
 H        -0.6556302974       -3.2748173714        4.3839158746
 H        -1.0838263815       -1.6209118641        4.9353458787
 H         2.4054620639       -3.3419536585        0.0320973794
 H         1.2001907041       -4.4597533508        0.7587843459
 H         1.1121555371        0.0664028442        3.0472358785
 H         0.9481794655        0.1324117630        1.2604413193
 H         2.4053455474       -0.5167415328        2.1986984571
 H         1.3887081340       -2.7690882074        3.9644740051
 H         1.2936194451       -3.7515131236        2.5711815414
 H         2.6447746184       -2.6720018724        2.7874214967
 H         1.3307193775       -4.9493296931       -1.7893028331
 H        -0.1145665230       -4.0103772380       -1.4762304069
 H         3.9885338303       -2.0165943085       -5.4300126907
 H         4.5014861738       -1.1863922501       -4.0354316407
 H         0.5397836049       -5.0700354461       -4.0258291870
 H         2.1583004548       -5.3430099898       -3.3740901769
 H         2.0227991408       -5.1574000563       -5.0961603825
 H         0.3928640945       -2.2350291239       -4.6888527682
 H         1.9929932840       -1.3555558804       -4.8912198495
 H         1.5209260589       -2.6462988318       -5.9182985211
 H         6.4210534646       -2.3958247054       -3.9729795613
 H         6.4105232258       -1.6492856626       -5.4276853804
 H         9.8721483824       -2.7751381994       -7.1249949223
 H         9.7774564646       -4.3932682467       -7.5646900214
 H         8.1389692314       -4.1040679545       -4.1176942852
 H         9.3808690807       -3.5281168500       -5.3378433611
 H         8.9093416005       -5.3775688215       -4.9171844293
 H         6.9840078294       -5.9026460463       -7.7919248408
 H         8.0697211866       -6.3284676142       -6.4598611536
 H         6.4314015014       -6.2649473163       -6.1552311136
 H         9.2808424065       -3.9166665932       -9.9157302847
 H         9.2510415412       -2.2226503777       -9.5278974830
 H        12.1846769916       -3.2381569300      -13.6372102587
 H        10.8040761678       -2.3008750860      -12.9742611956
 H        12.5141350467       -1.9081451377      -12.5748351350
 H        14.2359942125       -2.6433949218      -11.2341441475
 H        13.9904309358       -2.7403076425       -9.3750740352
 H        13.1960161559       -1.4328084005      -10.2295190741
 H        13.0597918861       -5.4176548543      -10.1628620752
 H        13.1725867786       -4.6608733159       -8.5992695261
 H        11.6595768797       -4.9810792653       -9.1585095984
 Na       -3.6298153449        0.1067166774        2.6717020108
