155

 C        -8.8520866066        9.3695986590        2.0877907003
 C        -8.1583443930        8.1877390080        2.7567512052
 C        -7.6864298787        8.2612206048        4.1679154100
 C        -6.2344167814        8.8287812114        4.1883136555
 C        -5.0083739342        7.9467052223        4.0640124665
 C        -8.4241399333        9.2659213442        5.2289261483
 C        -7.9267297266        6.9150427201        4.8615925226
 O        -7.7066604931        7.2805250497        2.1090892167
 O        -6.0988356575       10.0213904478        4.0492800172
 C        -4.6377326872        6.9823534253        5.2177061663
 C        -4.3388888192        5.5407055920        4.8904753877
 C        -3.1469431933        5.1160770937        4.0242587659
 C        -3.6155910186        3.8224993149        3.2172501555
 C        -5.0687829121        3.6857726078        2.3956783666
 O        -5.2244657548        4.7333370307        5.2727925276
 O        -2.9057321603        2.8320503628        3.2437880054
 C        -2.3958176267        6.1294181709        3.0903806872
 C        -2.2828060727        4.6590935985        5.1361876763
 C        -6.0728587637        2.8763113333        3.2268990876
 C        -6.3024179253        1.5191560551        2.6328604609
 C        -7.8053503648        0.8671500842        2.8086361989
 C        -7.9081902354        0.4377013526        4.3630145778
 C        -7.3550207941       -1.0438371183        4.6643616868
 C        -8.8951319579        1.9820365497        2.6546652473
 C        -8.1325579778       -0.2759932272        1.8731219661
 O        -5.3942340650        0.8584748590        2.1423800856
 O        -8.3710471241        1.2542923093        5.1173306675
 C        -6.6465716053       -1.0702429288        5.9915573718
 C        -5.6805402167       -2.3948451044        6.1055416212
 C        -4.0643505050       -2.1603472062        6.4918226821
 C        -3.4720627442       -1.7554111725        5.1979893310
 C        -2.6900045656       -2.7952344700        4.2688542873
 O        -6.0666472077       -3.5393980884        5.9313264294
 O        -3.6999676808       -0.6259225886        4.6465800776
 C        -3.9443884096       -1.1166889705        7.6586575556
 C        -3.5036583887       -3.5891498412        7.0668487703
 C        -1.1807950869       -2.3424201030        4.2201860892
 C        -0.9036482192       -1.7402745093        2.8050754072
 C         0.4567970915       -1.8588469142        2.2039765501
 C         0.2712604081       -2.3147746471        0.6733933809
 C         1.2804029892       -3.4240335367        0.0339340517
 C         1.2461019188       -0.4375825135        2.1329833165
 C         1.3675526601       -2.8559788245        2.9520532897
 O        -1.7682525943       -1.2679820629        2.1437151472
 O        -0.4061689990       -1.6163560849       -0.0509455684
 C         0.9460096950       -3.7909040894       -1.4764183717
 C         1.7366828697       -2.9034964458       -2.5197575628
 C         2.1241680244       -3.5042638909       -3.9511929838
 C         3.7260219564       -3.2896169401       -3.8361970482
 C         4.3965034337       -2.0588153887       -4.3308491101
 O         2.1733781257       -1.7829179158       -2.1891132111
 O         4.2036900008       -4.0635270828       -3.0172377553
 C         1.6296104818       -4.9854502498       -4.2426481716
 C         1.3624310244       -2.5923800685       -5.0523677343
 C         5.7445804969       -2.5119012294       -4.9978073280
 C         5.8107455578       -3.8874715783       -5.6708650124
 C         7.2779865978       -4.2791055172       -6.2233898426
 C         7.8323835107       -3.2668980375       -7.3343952857
 C         9.3464570681       -3.5011150252       -7.7196003886
 C         8.3108176056       -4.3291812805       -5.0700550764
 C         7.1948861139       -5.6375278393       -6.9522754248
 O         4.9279122326       -4.6507103690       -5.6128649375
 O         7.0876058497       -2.4686756042       -7.9062562009
 C         9.7570215939       -3.0735258218       -9.1392479731
 C        11.2851444455       -2.7185409361       -9.1006223354
 C        12.1295811964       -3.3668162157      -10.3282794364
 C        11.3608675797       -3.5369330206      -11.6692945139
 C        11.8798252702       -2.8954828971      -12.9696071013
 O        11.7674940438       -1.8774141356       -8.3109325940
 O        10.3503188752       -4.1666616510      -11.7192154019
 C        13.5124876696       -2.6470693845      -10.4901941144
 C        12.4288037241       -4.7080562049       -9.8028542666
 H        -8.7297744800        9.2982856733        1.0628824339
 H        -9.9344694101        9.4172046520        2.1665593361
 H        -8.6240995317       10.3463566835        2.5052170972
 H        -5.1771827039        7.3296176042        3.1309327240
 H        -4.2143013700        8.6014893035        3.9514662057
 H        -7.8116941446        9.3858162279        6.1259018949
 H        -9.4652618790        9.0956374524        5.5527829363
 H        -8.4563405211       10.2176184113        4.7284737924
 H        -8.9784298058        6.8580271932        4.7328074040
 H        -7.5166215206        5.9796860584        4.4918750857
 H        -7.7006837362        6.8735872766        5.9446932255
 H        -3.7420706172        7.3775101937        5.7424818148
 H        -5.4770395543        6.7711686581        5.9716249229
 H        -5.3956639365        4.7535115597        2.2327437388
 H        -4.7465908534        3.3123071588        1.4621494286
 H        -1.9851239622        6.9482941530        3.6968120282
 H        -2.9110606143        6.5025927394        2.2420431236
 H        -1.6200565758        5.5622716797        2.7370409991
 H        -1.2279215664        4.3892746374        4.8187123748
 H        -2.2125114972        5.5489888998        5.7333876442
 H        -2.8333990527        4.1399629934        5.8488377594
 H        -7.0295433575        3.4783855222        3.0261677045
 H        -5.6654420861        2.8151337434        4.2921326925
 H        -8.3922993726       -1.6127827528        4.6011451799
 H        -6.8045955229       -1.3854317182        3.7854792464
 H        -8.8085417205        2.7602006815        3.3841935562
 H        -9.9402384541        1.6620568256        2.8566567396
 H        -8.6911335728        2.3428083962        1.7157183971
 H        -7.6627508931       -1.1976980491        2.0871609197
 H        -9.1541387361       -0.5097017579        1.7069110746
 H        -7.6996430346       -0.1925975940        0.9245871918
 H        -6.0172158164       -0.1310659748        6.0581006883
 H        -7.2029784521       -1.2617272507        6.8862990115
 H        -2.8970196639       -3.8262137331        4.4415452021
 H        -3.0415745178       -2.6263452787        3.2947440031
 H        -2.9828238420       -1.3038060578        8.1162545846
 H        -4.7503643601       -1.4479571056        8.3328397579
 H        -4.1292120688       -0.0443349522        7.4833579627
 H        -2.4655890342       -3.5391395503        6.9795350443
 H        -3.8146051657       -3.7664658201        8.1788288482
 H        -3.8858013849       -4.1744151500        6.2889461808
 H        -0.5444871674       -3.0161422398        4.6187658789
 H        -1.1727757392       -1.4599790827        4.8710199054
 H         2.2400519684       -2.9346615393       -0.1164934053
 H         1.5290867662       -4.2702518168        0.6722365726
 H         0.5976132470        0.3832033868        1.6394352730
 H         2.0105738683       -0.4749997482        1.4174874571
 H         1.5387213473       -0.3220313883        3.1750622887
 H         1.9934013330       -2.2335342121        3.5952148998
 H         0.8562172483       -3.6214020236        3.5775512241
 H         2.1024487625       -3.3684911982        2.3567105272
 H         1.0745961718       -4.7833059912       -1.8774957448
 H        -0.1246949783       -3.6079995276       -1.5167152236
 H         3.8419427994       -1.4588943677       -5.0709425227
 H         4.5058640340       -1.3604012546       -3.4838543817
 H         0.6790348535       -5.0815981187       -3.8259831112
 H         2.1649056855       -5.9246484508       -3.9257771545
 H         1.5768527429       -5.1339679237       -5.2860093089
 H         0.9117830104       -3.1769841839       -5.8502302937
 H         0.7687642563       -1.8462008976       -4.5932687261
 H         2.0354285879       -1.9595172912       -5.5914019851
 H         6.6209077029       -2.5148296636       -4.1605161432
 H         6.1749652087       -1.7756748807       -5.6787343843
 H         9.9829343938       -2.9226425881       -6.9450195144
 H         9.6741105145       -4.4964511232       -7.5659808874
 H         8.0615448219       -4.8862621209       -4.1074508543
 H         8.6020726808       -3.3400978423       -4.9237798093
 H         9.0630585338       -4.9437021903       -5.5361194855
 H         7.2274344239       -5.4689581828       -8.0278540767
 H         8.0800353247       -6.3534457590       -6.6335839426
 H         6.2563754560       -6.2330093200       -6.7880503043
 H         9.6882730914       -3.8311163677       -9.9446021610
 H         9.1024809621       -2.1137372749       -9.3758107460
 H        12.4654252356       -3.6775404378      -13.5165604295
 H        10.9256064308       -2.7700801615      -13.4631604868
 H        12.3911676605       -1.9881511141      -12.9515684552
 H        13.6546816739       -2.8494689746      -11.5283313083
 H        14.3837665252       -3.0367022596       -9.9961862931
 H        13.4414600927       -1.5870706645      -10.2456557356
 H        13.3997834280       -5.0664963490      -10.0645208195
 H        12.5575731349       -4.6002490073       -8.6916451068
 H        11.6385578995       -5.4951648811      -10.0017541851
 Na       -3.0517419602        0.5771316596        2.6343611917
