155

 C        -7.5878684704        7.3142773214        0.1901173678
 C        -7.6477355078        7.3997233332        1.7710643737
 C        -7.2292087131        8.7916805546        2.5866903153
 C        -6.4824116441        8.3686628466        4.0244585760
 C        -5.7331926097        7.0226659801        4.2168629898
 C        -6.3682701261        9.6653971400        1.6061743487
 C        -8.5299261783        9.5634484820        3.0295008652
 O        -8.0529967612        6.4170186061        2.4312674843
 O        -6.4764259790        9.2440512347        4.9243655196
 C        -4.2708774195        7.1373436873        4.7423031200
 C        -3.8210696224        6.0146480472        5.5497763720
 C        -2.5900343196        5.2334366205        5.0715550571
 C        -3.1635333171        3.9076016757        4.1543601671
 C        -4.1295953278        3.9706344287        3.0150367501
 O        -4.3531511498        5.5849596892        6.5403086305
 O        -2.7198483043        2.8497000312        4.4703477380
 C        -1.4579282187        6.0386130265        4.2677379302
 C        -1.8740566639        4.6411789624        6.3613840102
 C        -5.5426833089        3.5132322045        3.5073352143
 C        -5.9993387723        1.9474536916        3.5362070766
 C        -7.3373601589        1.5419859157        4.0701639182
 C        -7.4269645377        0.7710230570        5.4256845213
 C        -6.6616883315       -0.5782470046        5.5559321320
 C        -8.2506297414        2.8347702278        4.2433274688
 C        -7.8446554660        0.5752013897        2.8942610560
 O        -5.1881673884        1.0542852643        3.2133566524
 O        -8.0665945936        1.3017641167        6.2775660689
 C        -5.9576733271       -0.6581830069        6.9394630780
 C        -5.2350794662       -2.0294909658        7.0303398686
 C        -3.5927260798       -2.1796945212        7.1219886118
 C        -3.0108123954       -1.4259388767        5.6700295641
 C        -3.3864939945       -2.1746394654        4.4328397603
 O        -5.7943296448       -3.0885750622        7.0028623433
 O        -2.1890852377       -0.4718927196        5.6637492380
 C        -3.1361219085       -1.4210708258        8.4237062087
 C        -3.3089232388       -3.6968264639        7.1250758312
 C        -2.1213767781       -2.6844098237        3.7805747611
 C        -1.3984326125       -1.7035595754        2.8546887580
 C        -0.0589813725       -2.1287868708        2.1251092637
 C        -0.4778011568       -3.0380219669        0.8761918214
 C        -0.1500577076       -2.4317626106       -0.6559548635
 C         0.8071145134       -0.9227475180        1.8588291204
 C         0.7235745676       -3.1108286768        3.0580100037
 O        -1.6974362159       -0.4973738244        2.7064514526
 O        -0.8355198939       -4.1927012345        1.0484862501
 C         0.4859597738       -3.6671060659       -1.4572444207
 C         1.5712340368       -3.2126941703       -2.5351548640
 C         1.9131488389       -4.3805396501       -3.4990915661
 C         3.2364385075       -4.1890109810       -4.4811529627
 C         3.6336627836       -2.7752581251       -5.2084966767
 O         2.1482251597       -2.1947287316       -2.6187689542
 O         3.9528212007       -5.1435028300       -4.7928360999
 C         2.2296931128       -5.5517069330       -2.6440258147
 C         0.7342118915       -4.3532902734       -4.6383173705
 C         5.0796048648       -2.8598489148       -5.7373772628
 C         5.2716014299       -3.5624926277       -7.2049470433
 C         6.7484406308       -4.0505602519       -7.6371546312
 C         7.9300419582       -2.8547751198       -7.4679558347
 C         9.2638769438       -3.0787349652       -8.0045637810
 C         7.0566460452       -5.2551160827       -6.8339053071
 C         6.7636245340       -4.3552126155       -9.1725856608
 O         4.2825654035       -3.7990211238       -7.8482767983
 O         7.6140167644       -1.7354044442       -7.1382186349
 C         9.5557409403       -2.7110841545       -9.4837931267
 C        11.0418227745       -2.9509750057       -9.8471134325
 C        11.4451741978       -3.8552242846      -11.1297876658
 C        11.0593345468       -2.8577516391      -12.2903476541
 C        12.1425192741       -1.9863445408      -12.8551431097
 O        11.8987040830       -2.5415673960       -9.0949829026
 O         9.8634811220       -2.6279546179      -12.5180430289
 C        12.9219131742       -4.1776986549      -11.1881577105
 C        10.4579248390       -5.1472815184      -10.9356035335
 H        -8.1045266482        6.4537709510       -0.1069391975
 H        -8.3437324173        8.0899472729       -0.1932330774
 H        -6.6852798187        7.1611721340       -0.5192234125
 H        -6.2628545929        6.3880562557        4.8584975057
 H        -5.7029091421        6.4343425248        3.3278231833
 H        -6.2742399131       10.7841752482        1.7880428164
 H        -6.8079273199        9.5879316231        0.5714197381
 H        -5.3277374001        9.3809157507        1.6583104498
 H        -9.4391115249        9.5341594026        2.4288767013
 H        -8.9267477969        9.1308485205        3.9197559575
 H        -8.3232703308       10.5557668160        3.3657193595
 H        -3.5588332821        7.4140451934        3.9146288353
 H        -4.2741569609        7.9719313908        5.4315096501
 H        -4.3441035561        4.8526532991        2.3854137851
 H        -3.9211897660        3.2209725967        2.2269386197
 H        -1.3598265301        6.9576701924        4.7879536042
 H        -1.9543703825        6.3493987074        3.4468648405
 H        -0.5488907206        5.5839456845        4.0256080957
 H        -0.9357427821        4.2928852972        6.0885689262
 H        -1.6693261870        5.5388656869        7.0409661833
 H        -2.5854234350        4.0408081388        6.9540268406
 H        -6.3506334929        4.0125618175        2.7982835387
 H        -5.8508414956        3.7851649565        4.4457153456
 H        -7.4274410899       -1.3381450987        5.4206513380
 H        -5.9229425858       -0.6621808001        4.7068543284
 H        -7.8463353915        3.4988942194        5.0733990693
 H        -9.1551948962        2.4414937886        4.6549937516
 H        -8.2223578737        3.4234640974        3.2734287152
 H        -7.5459679996       -0.4308670722        3.0675588043
 H        -8.8877661680        0.5329834326        2.6878800338
 H        -7.2929765475        0.8057983422        1.9797525875
 H        -5.1578930238        0.0522920301        7.1115685363
 H        -6.6379438353       -0.3821013519        7.6667987305
 H        -4.3016358610       -2.8225280428        4.5116201208
 H        -3.8477755128       -1.3966925648        3.7146121990
 H        -2.4391888911       -2.0454641622        8.9959019045
 H        -3.9317378137       -1.1793833063        9.1025670797
 H        -2.6045076695       -0.4996691913        8.1233966916
 H        -2.2914458945       -3.7775211894        7.5050937253
 H        -3.8457403258       -3.9612659035        8.0471765306
 H        -3.4811511642       -4.1773037150        6.1682681617
 H        -2.4524196801       -3.6694767781        3.1881563900
 H        -1.3718301090       -3.1004869983        4.4821972060
 H        -1.0255434513       -2.0431290326       -1.2087563959
 H         0.5702084198       -1.6772959355       -0.6951447707
 H         0.2903933583       -0.2364213650        1.0359484192
 H         1.7972582396       -1.1484724985        1.3442019098
 H         1.1861860504       -0.3409343680        2.7998815869
 H         0.5188649224       -3.0976292739        4.1166091780
 H         0.7034454456       -4.1067208297        2.7066835786
 H         1.7383996210       -2.6841078755        3.0890690844
 H         1.0140162611       -4.3155668999       -0.7301189893
 H        -0.2358551508       -4.2920831542       -1.8754507227
 H         3.0544332273       -2.6831755108       -6.1331478749
 H         3.5168365473       -1.8792233291       -4.5476650927
 H         1.3895333869       -5.7282210029       -1.9681347370
 H         3.0142115438       -5.3978859524       -1.8802081065
 H         2.4371410521       -6.4944141501       -3.1404954947
 H         0.0122412080       -5.0250968631       -4.2303062325
 H         0.3504571718       -3.3525012310       -4.6296920908
 H         1.1723592822       -4.6625389627       -5.5956880601
 H         5.6757178879       -3.4276938757       -5.1418712957
 H         5.5794387037       -1.8496906177       -5.8216588865
 H        10.0661492169       -2.4832047891       -7.5259183386
 H         9.5418525547       -4.1330212823       -7.7921290737
 H         6.3205520466       -6.0058494056       -6.8030714455
 H         7.2653317364       -4.9789813978       -5.7789399865
 H         7.9134065197       -5.6624031855       -7.3303332549
 H         6.5579966618       -3.5107029735       -9.7419880459
 H         7.6928437164       -4.9137470327       -9.4912709191
 H         5.9370857530       -5.0545996395       -9.3923220537
 H         8.9509736335       -3.3021822903      -10.1667066273
 H         9.4328476882       -1.7293902004       -9.7397810341
 H        11.8116918614       -0.8972653923      -12.7394730241
 H        13.2038650864       -2.1030103589      -12.4779158291
 H        12.1111390958       -2.0337218480      -13.9685501296
 H        13.3752592626       -4.2005630970      -12.1603724253
 H        12.9692744718       -5.1429437427      -10.7011689065
 H        13.4265577677       -3.5730786058      -10.4951031373
 H        10.7595501790       -5.9429360609      -11.5651503181
 H        10.4336889993       -5.7087783454      -10.0234525822
 H         9.4548212185       -4.7900558363      -11.1234419828
 Na       -2.9798161888        0.8850071182        3.7678487822
