155

 C        -8.0868475257        7.6608145874        1.9701851942
 C        -6.7389513580        7.1303686617        1.2709040378
 C        -5.6583288315        8.3086851406        0.7855755482
 C        -5.0378582717        8.6379343720        2.1416334860
 C        -5.0977940846        7.5215880391        3.3467479513
 C        -4.7053849710        7.8364931171       -0.3229254340
 C        -6.1850905383        9.7551281138        0.2089642774
 O        -6.6324341841        6.0020621008        0.8549510265
 O        -4.6095315760        9.6966383874        2.4443554510
 C        -3.9434428802        7.5617343400        4.3721763695
 C        -3.6928840434        6.1698666600        4.7944138568
 C        -2.2556599288        5.4938428402        4.6349742407
 C        -2.4946424209        3.9803591874        4.7773729506
 C        -3.3606036074        3.2925379454        3.6981533343
 O        -4.5283019803        5.5378051128        5.3764996962
 O        -1.6888833016        3.2678105915        5.4714211813
 C        -1.4906688776        5.7451948017        3.3522314166
 C        -1.3068091655        5.9350142886        5.8334905178
 C        -4.8105878288        2.9161995845        4.2010463001
 C        -5.1004852262        1.7743062116        5.1990842559
 C        -6.2064061510        1.8157680455        6.3423814794
 C        -6.0712639538        0.6438440744        7.2885124128
 C        -6.3490104879       -0.8153950070        6.6322351437
 C        -5.8989322514        3.0677421650        7.2755469741
 C        -7.7365283080        1.9762612335        5.7464670076
 O        -4.2464033397        0.8519672203        5.3131478372
 O        -5.9657164152        0.7756476701        8.5038857764
 C        -5.0739405060       -1.6663684028        7.1322408457
 C        -4.6290452470       -2.8668255243        6.2290200873
 C        -3.0135941687       -3.1965321003        6.1884125045
 C        -2.4329493242       -1.9891573071        5.1805643215
 C        -3.1010177950       -1.9321269203        3.7444773730
 O        -5.4233686757       -3.6023854322        5.6571666184
 O        -1.4689149289       -1.2962042397        5.5111159333
 C        -2.3045692736       -3.3300407229        7.5049382642
 C        -2.7385625336       -4.6279727197        5.4025706007
 C        -2.0697136728       -2.0500536021        2.6821824369
 C        -1.1444853967       -0.8229810518        2.5479991907
 C         0.3983143011       -0.9304917732        1.9395056954
 C         0.4555132294       -2.2348644086        0.9527112336
 C         0.6175507348       -2.0702124142       -0.5840640876
 C         0.8442690185        0.5009711637        1.2975489062
 C         1.3707167775       -1.3558116678        3.1290908929
 O        -1.6303184473        0.1899404704        2.9009993390
 O         0.1387431488       -3.3280802509        1.4140999754
 C         1.3631536361       -3.3710402571       -0.9946538052
 C         1.1394832518       -3.6210762802       -2.4381027058
 C         2.0581948709       -4.7281356604       -3.0214186157
 C         3.6297365189       -4.2956778973       -3.0476013867
 C         4.2646479211       -3.5619176910       -4.3117948739
 O         0.5433967645       -2.8676356620       -3.2014984323
 O         4.2865513594       -4.5693433488       -2.0629797153
 C         2.1018332546       -5.9778508557       -2.0250895216
 C         1.4689156328       -5.4870159040       -4.3494666614
 C         4.2904927685       -4.1978972891       -5.6960323127
 C         3.3103893152       -3.6081710588       -6.6890838629
 C         3.8459594756       -3.7518962872       -8.3036847462
 C         5.2665892460       -3.1383320194       -8.3991508572
 C         6.1797245095       -3.6046441215       -9.6169475898
 C         3.6886172011       -5.1947662279       -8.7735110411
 C         2.9501292796       -2.8150164284       -9.2436051578
 O         2.2355470948       -3.1725638973       -6.4752428182
 O         5.6771059438       -2.2097781631       -7.7040310976
 C         7.5873962701       -2.9771537554       -9.7599054671
 C         8.5320365924       -3.8679024727      -10.6685699507
 C         9.6153559715       -3.2729358375      -11.5452919404
 C        10.3782499319       -2.0708146023      -10.9175133133
 C        11.1868074005       -2.5027773871       -9.7853359235
 O         8.3057635398       -5.0452529845      -10.6758383468
 O        10.2731664186       -0.8826630971      -11.1462390263
 C        10.6566902730       -4.2541157681      -11.9691441816
 C         8.9877243357       -2.7046800688      -12.9553100524
 H        -8.3102686185        8.5408762861        1.3181869744
 H        -8.8658692577        7.0032310238        2.0556667244
 H        -8.0442816292        7.7989077750        3.1028169819
 H        -6.0743613233        7.4638733499        3.8094406989
 H        -5.0026241715        6.5146337527        2.8066572493
 H        -3.9558409115        8.5680469577       -0.4530325409
 H        -5.3338854572        7.8251131248       -1.1629276852
 H        -4.4355303979        6.7786661567       -0.1270812234
 H        -6.6086356221        9.5929812597       -0.8243859638
 H        -6.9101486008        9.9203107476        0.9951354256
 H        -5.3850775647       10.4308903498        0.0496033176
 H        -3.0756395505        7.9847653116        3.9399804155
 H        -4.2660956027        8.2586929623        5.1486431102
 H        -3.3493008091        3.8691672623        2.7884425365
 H        -2.9521162596        2.2292417326        3.5481082745
 H        -1.8114970083        6.7841370790        2.9296201136
 H        -1.7373286376        4.9813466358        2.6263273107
 H        -0.3822410169        5.7980550982        3.2526093233
 H        -0.3015692248        6.0231456880        5.5220545601
 H        -1.6945357555        6.9344394321        6.2223347685
 H        -1.3232857839        5.1372813281        6.5542781821
 H        -5.5275822132        2.6787624212        3.3136931221
 H        -5.1433734441        3.8424612467        4.7572642806
 H        -7.1287105884       -1.3005981799        7.2135898174
 H        -6.5754453922       -0.8214799610        5.6185596259
 H        -5.0769070406        2.8171674784        7.9842234857
 H        -6.7006477020        3.4239204931        7.8431710945
 H        -5.6830893771        4.0347193050        6.7246950680
 H        -8.2879892103        2.5170883055        6.5156701662
 H        -7.6860809339        2.4540116847        4.7463951521
 H        -8.2598896602        0.9774523624        5.5953824362
 H        -4.2447822625       -1.0305012937        7.1463572239
 H        -5.1527843175       -2.0891819037        8.1165467800
 H        -3.9764551157       -2.4060956439        3.8602667375
 H        -3.5310457498       -0.8788819350        3.5430995368
 H        -1.7153390725       -4.2182471855        7.3487866361
 H        -2.9767864444       -3.3640166905        8.4305335118
 H        -1.5539106355       -2.4801236674        7.7815750998
 H        -1.6920657552       -5.0068757289        5.5582976759
 H        -3.4563974384       -5.4038086603        6.0040645252
 H        -2.9903478107       -4.7574345849        4.3819269941
 H        -2.6087962202       -2.3217398891        1.7897682091
 H        -1.3736166618       -2.9566470435        2.8830051069
 H        -0.3924934151       -2.1146808349       -0.9353481645
 H         0.9040014136       -1.1216112861       -0.9523945605
 H         0.3521085526        0.4351562318        0.2944458181
 H         1.9669435482        0.2909485765        1.0909485768
 H         0.4844094472        1.4839961682        1.7537866136
 H         0.8105107920       -2.1426552725        3.7122874043
 H         2.3140255562       -1.8165082402        2.8105487752
 H         1.4720462540       -0.4708540455        3.7691911997
 H         2.4088920553       -3.2832398347       -0.9406320820
 H         1.0637460332       -4.2455449697       -0.3316625999
 H         3.7974097940       -2.5534515454       -4.3105211196
 H         5.3072301875       -3.5239876531       -3.9626993707
 H         1.1247505956       -6.2768331898       -1.7066528530
 H         2.7877318529       -5.6400901028       -1.1652067295
 H         2.4245416684       -6.7387155920       -2.6954958757
 H         0.5239809036       -6.0837501392       -4.3666169128
 H         1.3565323579       -4.7135342952       -5.1497011459
 H         2.2777304175       -6.2046056226       -4.6073043337
 H         3.9749032066       -5.3074568009       -5.4290898635
 H         5.2953314873       -4.3567966916       -6.0958034108
 H         6.2785456804       -4.6981971680       -9.7583478190
 H         5.5561854621       -3.1712326270      -10.4352156808
 H         2.7409180547       -5.5997046061       -8.4678226313
 H         4.5974470371       -5.9277815198       -8.5525543910
 H         3.5678717274       -5.2443536033       -9.8609009219
 H         3.0843030932       -1.6655399728       -8.9970651149
 H         3.2756757290       -3.0321058906      -10.3106691005
 H         1.8757013583       -3.1693953241       -9.1966702170
 H         7.5227920698       -2.0712565974      -10.2537117297
 H         8.2331456811       -2.7535502223       -8.8526098061
 H        11.3651513430       -1.7919852223       -8.9787867359
 H        10.8631900305       -3.3675612232       -9.3127109231
 H        12.1854168518       -2.7291684925      -10.0274996334
 H        11.6054253007       -3.8490167838      -12.4308941556
 H        10.1704693208       -4.7885947419      -12.7803203833
 H        10.9339653761       -4.9303315445      -11.0999286771
 H         9.6062242472       -2.1678742533      -13.6640397730
 H         8.3776480699       -3.4729288196      -13.4802649029
 H         8.2133029696       -1.9561699904      -12.6262823382
 Na       -1.7324133829        1.0003156556        4.8554379004
