155

 C        -7.6850043034        8.2600024092        1.8924028657
 C        -6.9062910483        7.6919068400        0.6828239121
 C        -5.5707454845        8.4222901767        0.3479047448
 C        -4.6403134599        8.4693250014        1.6702352870
 C        -4.0704887164        7.1544164830        2.3378644950
 C        -4.9572000127        7.7904204016       -1.0099781593
 C        -5.9192569165        9.8825360104        0.1040813863
 O        -7.1489506142        6.7360084692       -0.0735661839
 O        -4.3547536334        9.5639129727        2.0014733687
 C        -3.3747327251        7.3180609032        3.7761698367
 C        -3.2404559518        5.9945322851        4.5980188107
 C        -1.8206771093        5.1503958593        4.4314654125
 C        -2.1683184778        3.6849031577        4.6370309650
 C        -3.3640827693        2.8572620842        3.7979162168
 O        -3.9427435954        5.7008792987        5.5301013656
 O        -1.5727527214        2.9967921781        5.4663896205
 C        -1.2007539539        5.3173108589        3.1007829696
 C        -0.8453761955        5.5375594887        5.7130595641
 C        -4.7336653571        2.5203502869        4.6765025414
 C        -4.6969169122        1.8669064143        6.0315459165
 C        -5.9703198315        1.8115701831        6.8427412111
 C        -6.0732594423        0.4207056418        7.6677284159
 C        -5.5826652081       -0.9507576460        6.8944957981
 C        -5.5831485932        2.9510571001        7.8357563399
 C        -7.3317707446        2.1656255608        6.1471575334
 O        -3.6590986299        1.3865738464        6.4516179928
 O        -6.5468422021        0.3701933249        8.7295107154
 C        -4.5759621484       -1.9501218543        7.5457127887
 C        -4.3922303041       -3.0642355765        6.5744861439
 C        -2.9724142636       -3.4123194215        6.0969394407
 C        -2.4762838337       -2.2397437695        5.3022360530
 C        -2.9067994610       -2.0217262978        3.8725557560
 O        -5.3333562099       -3.6045308798        6.0649445081
 O        -2.0264760261       -1.2850361660        5.9072567023
 C        -2.0848077275       -3.7688741386        7.3541712154
 C        -3.2287849845       -4.7890872785        5.2136793493
 C        -1.7734651351       -1.9420659125        2.7659556276
 C        -1.0442001572       -0.6639440678        2.6478691226
 C         0.3865777307       -0.6380666727        1.8065161890
 C         0.7109697300       -2.2836180413        1.5624871674
 C         0.4372848394       -3.0247914492        0.0295692112
 C         0.1895028222        0.1831754370        0.5007444368
 C         1.3005297917        0.0139136563        2.8433939131
 O        -1.4994923634        0.4828766366        3.0410475290
 O         0.9131747151       -2.9607230920        2.5347521641
 C         1.4901433316       -2.6733927636       -1.0973134903
 C         1.3233055006       -3.2646488717       -2.5476045623
 C         2.0216606655       -4.6996848192       -2.8735035249
 C         3.4846742245       -4.2500700535       -3.2303034175
 C         3.7309670118       -3.4613987518       -4.5341082464
 O         0.8592099904       -2.7681633046       -3.5017040027
 O         4.4131799994       -4.2494156321       -2.3924828783
 C         2.0259169889       -5.6363748984       -1.4645996489
 C         1.3386603089       -5.3458554807       -4.0096240136
 C         4.0092675470       -4.1991459116       -5.9377955399
 C         3.0342627949       -3.6742232757       -7.0883318984
 C         3.4310246358       -3.6104635006       -8.6403817225
 C         4.9188320372       -3.4278516380       -8.6770167718
 C         5.7969515464       -4.0970198172       -9.8401406966
 C         2.9425187433       -4.9960483705       -9.4108947409
 C         2.7689640152       -2.3890683420       -9.3924808020
 O         1.8941028059       -3.3810009544       -6.8965020803
 O         5.4546617786       -2.8000140550       -7.8214190179
 C         6.9012097265       -3.1186222321      -10.2063724225
 C         7.8946281469       -3.6641015847      -11.2634093942
 C         9.3046046128       -2.9343837361      -11.4938154441
 C         9.8780710141       -2.4325254767      -10.1324985840
 C        11.0820634776       -2.9069721737       -9.5108287259
 O         7.5260876901       -4.5959072474      -11.8984445644
 O         9.2425966158       -1.4559982119       -9.6590968770
 C        10.1269907280       -4.1323370052      -12.1885219651
 C         9.0742621989       -1.7729416393      -12.6249454280
 H        -8.1842963737        9.1786770858        1.7328114500
 H        -8.4192371290        7.5167140336        2.1474159358
 H        -7.0159460017        8.4357081273        2.7946921748
 H        -5.0094507314        6.5640470344        2.6816092037
 H        -3.5642741121        6.5038257830        1.5691344506
 H        -4.0829997133        8.3125719945       -1.1760885272
 H        -5.7449915227        7.9600312629       -1.7013152517
 H        -4.7123262936        6.6969473297       -0.8913188069
 H        -6.6351977564        9.9505399875       -0.6723271539
 H        -6.5038735455       10.2280400984        1.0296037456
 H        -4.9654087295       10.4748149654       -0.0721559432
 H        -2.3564809960        7.7708710454        3.6393689120
 H        -3.9426724656        7.9717465234        4.4232741815
 H        -3.8607536327        3.4496893064        3.0351980660
 H        -2.9346003972        1.9523095331        3.4012635704
 H        -1.2256054362        6.3724951074        2.9164696222
 H        -1.7118479546        5.0164638013        2.2858056219
 H        -0.2011081007        4.9146473034        3.1234719724
 H        -0.5607030073        4.6738494335        6.2940588720
 H         0.0407968474        6.0293690858        5.3451426525
 H        -1.3207942801        6.3585890915        6.2803459575
 H        -5.3524985948        1.9869165623        3.9932400004
 H        -5.1269964914        3.3850140017        4.9117033880
 H        -6.5042239848       -1.3808308422        6.5875761129
 H        -5.4337707754       -0.5677003129        5.8020880424
 H        -4.6957462974        2.7843104157        8.4258461205
 H        -6.2368184049        3.0421382961        8.7387333089
 H        -5.4402905531        3.9290625664        7.3325278630
 H        -7.9005211381        2.7323471814        6.9310744193
 H        -7.1689436221        2.9155765509        5.3418062290
 H        -7.8553759744        1.3667474177        5.6268751360
 H        -3.6119187108       -1.3578461681        7.7365317736
 H        -5.0443826654       -2.3099041807        8.4994675494
 H        -3.5775288205       -2.9323537547        3.6997903233
 H        -3.4543935810       -1.1306870150        3.7784407238
 H        -1.0218095940       -3.6211620189        7.3273574784
 H        -2.2848614911       -4.8687438574        7.6200247920
 H        -2.2719679486       -3.0360862605        8.1605797608
 H        -2.3778461023       -5.3724661921        4.9240068537
 H        -3.8565645546       -5.5013688079        5.8323581210
 H        -3.8647243972       -4.7404862193        4.4097809459
 H        -2.3127820113       -2.2108510143        1.8306961159
 H        -1.0637973213       -2.6475548532        2.9032510185
 H         0.1252020501       -4.0739551570        0.2235329935
 H        -0.5310820245       -2.6007184574       -0.2643898296
 H        -0.3247113158       -0.4407632272       -0.1608439785
 H         0.9524036349        0.5078540243       -0.1968247152
 H        -0.2689279526        1.0502646385        0.8652493713
 H         1.3489158470       -0.6214525199        3.7253178434
 H         2.3038773773       -0.0102595216        2.3187147870
 H         1.0228917053        1.0454545592        3.1576419938
 H         1.5097477030       -1.5634938703       -1.0529653114
 H         2.4589917925       -3.0409983281       -0.9204161576
 H         2.8553805611       -2.8659782996       -4.8148000417
 H         4.5798638572       -2.8330835865       -4.3711136413
 H         0.9555340697       -6.0152336924       -1.4284339210
 H         2.5602536599       -5.2257015361       -0.6290744085
 H         2.6557240483       -6.5178221969       -1.7925922571
 H         0.2474141200       -5.4161508792       -3.7177616554
 H         1.4637521619       -4.8320343431       -5.0256286748
 H         1.7171644876       -6.3732172699       -4.2519915703
 H         3.7941910398       -5.3124094268       -5.9242948806
 H         5.0705306933       -4.1367976085       -6.1484917622
 H         6.1002324161       -5.0277759474       -9.4521258624
 H         5.1077903838       -4.3758929731      -10.5670775420
 H         2.3272792345       -5.5920100546       -8.7240979900
 H         3.8461115270       -5.6018173199       -9.5770760577
 H         2.4200754939       -4.7867903760      -10.3142599021
 H         3.1476454133       -1.3766852570       -9.0802851737
 H         2.9093817344       -2.5839356236      -10.5241259817
 H         1.7157730730       -2.4274704669       -9.0978087033
 H         6.3985852899       -2.2098805700      -10.7241302237
 H         7.3951754884       -2.8420818200       -9.3343432886
 H        11.5597210534       -2.3674021017       -8.6402796529
 H        11.0476826015       -3.9804343193       -9.2074513017
 H        11.9527136525       -3.0181325686      -10.2071978889
 H        11.2478680652       -4.0315045936      -12.2532661482
 H         9.5886566252       -4.4273798707      -13.0678739820
 H         9.9422260678       -5.0527746344      -11.6633536220
 H         9.9119475141       -1.0386377246      -12.6237013270
 H         8.8039401313       -2.3034978632      -13.5074510954
 H         8.2535083221       -1.1256837990      -12.4700483338
 Na       -1.4897573156        0.7848662555        5.3823820075
