155

 C        -6.3048250586       10.2589803761        0.0704028925
 C        -5.4535633304        9.1230389962        0.5772832383
 C        -4.1490310601        8.7737136162       -0.3107658294
 C        -2.8326627667        8.3586485037        0.5332335051
 C        -3.0854560454        7.6171367107        1.9251730284
 C        -4.4440257888        7.3469261738       -0.9600263729
 C        -3.8060860773        9.8825868084       -1.3190209784
 O        -5.8163949917        8.4178778343        1.4555265413
 O        -1.7653248820        8.4191694165       -0.0119302649
 C        -2.1146438045        6.5962246601        2.1224671358
 C        -2.1998461029        5.6780095859        3.4757983293
 C        -2.2292340392        4.0882166884        3.1823293801
 C        -2.4743124275        3.3067487600        4.4487393787
 C        -3.8154516104        3.7041580556        5.0912953845
 O        -2.2630723352        6.1471442197        4.5926126824
 O        -1.5522208787        2.5789656167        4.8465494322
 C        -3.1175788108        3.6406398067        1.9809706818
 C        -0.7869166846        3.8063073935        2.7177363425
 C        -4.1695809859        3.1178580073        6.5548487689
 C        -4.1592750716        1.6475189976        6.9423962618
 C        -4.9397644835        1.2985689365        8.2529222909
 C        -4.7955315791       -0.2407859588        8.7331822683
 C        -5.5896978146       -1.2469160367        8.0006622822
 C        -4.4889984389        2.1961770547        9.4139504918
 C        -6.4255989259        1.7103021431        7.8420259231
 O        -3.6808495747        0.8145859614        6.1796438003
 O        -3.9521456874       -0.6218855677        9.5228371384
 C        -4.7762510168       -2.6110099467        8.0761446529
 C        -3.7585787840       -2.5801979936        6.9536505218
 C        -2.3134614593       -3.1824970664        7.1806200338
 C        -1.3682959978       -2.4484191295        6.1847158005
 C        -1.4602082754       -2.9747466156        4.7120845903
 O        -4.0245507453       -2.1002272533        5.8470262653
 O        -0.7050425895       -1.4677823245        6.5307575576
 C        -1.5954732534       -2.9607932571        8.5906787673
 C        -2.4422175783       -4.7421158169        6.6589038040
 C        -0.3983527137       -2.4086940046        3.6605556129
 C        -0.5723231825       -1.0721426766        2.8233479265
 C         0.1134717767       -0.9929107636        1.3091884548
 C         1.5477517279       -1.3908662202        1.2744572693
 C         2.2032320908       -1.9590361153        0.0708256753
 C        -0.9849560669       -1.9472142205        0.5571591202
 C         0.1237027271        0.4625889167        0.8382436455
 O        -1.0483035396       -0.1002078190        3.2716145177
 O         2.2668117137       -0.9108061080        2.1691096788
 C         1.6472363546       -1.8629135933       -1.3910946721
 C         1.0059068737       -3.2125971862       -1.9170442972
 C         1.9650566096       -4.3268633396       -2.5834979523
 C         2.3229624708       -3.6183341346       -4.0339219134
 C         1.1883291688       -3.6572737727       -5.0945868360
 O        -0.2552720362       -3.4258281357       -1.7749390571
 O         3.3141493606       -2.9507916444       -4.1337719210
 C         3.1812884434       -4.4701714359       -1.7839341033
 C         1.2938365345       -5.7119169570       -2.6926148094
 C         1.5705624034       -4.4225457757       -6.4962592148
 C         1.3577236321       -3.5032686609       -7.6484486404
 C         1.7949407432       -4.0447056256       -9.0930964134
 C         3.3248814287       -3.8782184449       -9.0539664883
 C         3.9044482035       -2.5542703005       -9.5925411860
 C         1.4324261973       -5.5583539363       -9.3616245195
 C         1.0446529176       -3.1782718810      -10.2650577052
 O         1.0167755991       -2.3434928425       -7.5465958756
 O         4.0555554982       -4.7540623578       -8.6053842131
 C         5.4173348432       -2.5214591083       -9.2448984477
 C         6.1901523810       -2.3062749664      -10.4914526599
 C         7.7878671559       -2.2294803618      -10.5382532982
 C         8.3093719925       -3.6793599909      -10.7316082101
 C         8.2485865398       -4.3022330493      -12.0783524217
 O         5.5643026052       -2.3316446499      -11.5119306701
 O         8.9931082429       -4.2076285105       -9.8230943955
 C         8.1702971204       -1.0882399898      -11.5657446639
 C         8.3990789586       -1.7524973368       -9.2004503115
 H        -6.4519433726       10.9375955611        0.8033227574
 H        -6.0462805283       10.8044773061       -0.8627524956
 H        -7.2818400638        9.7742362800       -0.0756450186
 H        -2.9997951398        8.3649363021        2.6890221539
 H        -4.1804588557        7.3580659308        2.0240054108
 H        -4.6307249805        7.3695531831       -1.9914699865
 H        -5.3583091475        6.9310171562       -0.6940062615
 H        -3.5928890618        6.7021102480       -0.7468246929
 H        -4.5393185257        9.8850410347       -2.0779437845
 H        -3.5729979267       10.8950683961       -0.9135861569
 H        -2.8690482612        9.6737521126       -1.8804376541
 H        -2.1575236500        5.7995765367        1.2571732007
 H        -1.1169558625        7.1411917826        2.2421539895
 H        -3.9703069349        4.7624366390        5.0708382394
 H        -4.6868078767        3.2429273096        4.4786053706
 H        -2.7493245242        3.9263967721        1.0075958216
 H        -4.1450861881        4.0442809455        2.2398727638
 H        -3.1712695873        2.5705496720        1.8387571391
 H        -0.4304615844        4.4393180014        1.8994950878
 H        -0.1144980059        3.8809919540        3.5040893116
 H        -0.7520125915        2.7444572976        2.3476808622
 H        -5.0774152377        3.5606857753        6.8457864888
 H        -3.3979592263        3.6169792260        7.1769482612
 H        -6.6956832435       -1.3564216666        8.4000791399
 H        -5.9815037714       -1.1142860011        7.0048924963
 H        -3.5005172095        1.9302838317        9.6878752382
 H        -5.3038167544        2.0842494908       10.1814570983
 H        -4.4411008204        3.2469412666        9.1706411008
 H        -7.2276878809        1.6481986095        8.5622335896
 H        -6.2809009877        2.7294734101        7.5074774715
 H        -6.7784223622        1.0926839262        7.0145582335
 H        -4.1706123258       -2.7130897925        9.0518000713
 H        -5.4510839351       -3.5207048746        7.9333894474
 H        -0.9156757888       -4.0352105697        4.7156036526
 H        -2.4868066705       -2.9722813126        4.3569771620
 H        -0.5173845874       -2.8134729753        8.3633543124
 H        -1.8380086280       -3.8627099962        9.2794538728
 H        -1.9155732723       -2.0059464020        9.1695749920
 H        -1.4516941927       -5.1162849528        6.8342500273
 H        -3.0806445108       -5.3583405644        7.3510357996
 H        -2.8322849299       -5.0521024260        5.7561908997
 H        -0.0748094540       -3.2126553215        3.0420494225
 H         0.5024204980       -2.1070224627        4.2006973862
 H         3.1661050656       -1.4649667613        0.1337326697
 H         2.3202137445       -2.9894813260        0.3344321652
 H        -0.5723097614       -2.9989020398        0.4333654882
 H        -1.3172596096       -1.6279176930       -0.4886170280
 H        -1.8278970433       -2.2388426383        1.1900751009
 H         0.4941141729        0.7022309710       -0.1304972319
 H        -0.8227479846        0.9447105306        0.9171074765
 H         0.8855154980        0.8788067379        1.5132188146
 H         0.8852336047       -1.0578883450       -1.4451964569
 H         2.5859551235       -1.7528205025       -1.9766545831
 H         0.3898361220       -4.3084172571       -4.7701291911
 H         0.8454322375       -2.5956455951       -5.0072356943
 H         3.1589415744       -4.8891566722       -0.7093426542
 H         3.4858471635       -3.4712212945       -1.5062277615
 H         3.9644781518       -5.0367208641       -2.3167619153
 H         0.9830060933       -6.1365746778       -1.7353743017
 H         0.5449701067       -5.7811031267       -3.4439850231
 H         2.1134351241       -6.3915421895       -2.9875674648
 H         0.8258783013       -5.1939307875       -6.5805946923
 H         2.5432931323       -4.9102953856       -6.5319999710
 H         3.6792650549       -2.6486094984      -10.6884902130
 H         3.3606809728       -1.6552746687       -9.2587888848
 H         2.2243038956       -6.2336206774       -9.0336841751
 H         0.9758655353       -5.8275166524      -10.3697437672
 H         0.6135835094       -5.7715735969       -8.6307643544
 H         0.5716471184       -2.1692327970       -9.9328939408
 H         1.7067466980       -2.8478259013      -11.1080591106
 H         0.0984599823       -3.8006731719      -10.5166444155
 H         5.5632589499       -1.8866884828       -8.4095905113
 H         5.7370559176       -3.5440293623       -8.7205991208
 H         8.1326532254       -5.3744421960      -11.8677257014
 H         7.5938761149       -3.6741890433      -12.7028437007
 H         9.3074947382       -4.2883905452      -12.2699184273
 H         9.1932860165       -1.0522912808      -11.8865192588
 H         7.7915904027       -0.1211116881      -11.1474431887
 H         7.6257734510       -1.3053906073      -12.4828373584
 H         9.4908185214       -1.6210067490       -9.3975223119
 H         8.0848030701       -0.6936929339       -9.0990627897
 H         8.1665252137       -2.2688306397       -8.2866775173
 Na       -1.7378721811        0.2952727607        5.1955812523
