155

 C        -5.6178185113       10.6799531470        0.0903791295
 C        -5.0656794435        9.2495269391        0.4539953306
 C        -3.9240501311        8.6433917274       -0.4152016380
 C        -2.6518537756        8.1788917082        0.4037284250
 C        -2.8768747461        7.1680672238        1.4776643867
 C        -4.5983278728        7.4216749522       -1.0205640705
 C        -3.4568009508        9.5215489724       -1.5938063743
 O        -5.2543354248        8.8887559414        1.5979933813
 O        -1.5525639435        8.6513194558        0.1983628995
 C        -1.7126593448        6.5003147302        2.1905302296
 C        -1.9874321523        5.6601232252        3.4627626746
 C        -2.3353972955        4.0731834161        3.0783249749
 C        -2.5771971403        3.2764371400        4.3590710223
 C        -3.8948552016        3.2652670048        5.0343829099
 O        -2.0202863727        6.1220002536        4.5278582836
 O        -1.5317417000        2.6226542851        4.6505701465
 C        -3.6383650003        4.0254143405        2.1109729621
 C        -1.1689324308        3.3635517943        2.2729187611
 C        -3.9267256027        3.1454194091        6.6524552229
 C        -4.2412616361        1.7257522893        7.1849807795
 C        -4.9869484828        1.3362572967        8.5752593394
 C        -4.4498461608       -0.1607432554        8.7120479104
 C        -5.2414688969       -1.3427708051        8.1725379173
 C        -4.2716515950        2.3395079549        9.6730551828
 C        -6.4797134530        1.6181066400        8.4734989670
 O        -3.9214732556        0.7490836527        6.5391128633
 O        -3.3662024896       -0.3736813047        9.1423443098
 C        -4.5870606880       -2.6154316216        7.6270457822
 C        -3.3919967590       -2.2810608461        6.6893495657
 C        -1.9535371352       -2.9335376747        7.1424715698
 C        -1.0000815330       -2.5868903449        6.0168493192
 C        -0.9420617126       -3.2871130137        4.6274592660
 O        -3.4726450495       -1.6097834630        5.6457468222
 O        -0.2210274188       -1.5995869668        6.1085776658
 C        -1.3401214927       -2.3859771053        8.4505196029
 C        -1.9310060579       -4.4208341978        7.3002990356
 C        -0.1391623671       -2.4222392279        3.5639177160
 C        -0.8159041067       -1.3904854192        2.8297407767
 C        -0.1958178982       -1.1583699384        1.3673703198
 C         1.3072205439       -1.3041314545        1.2709388059
 C         2.0471543453       -2.3013318296        0.2128874962
 C        -0.8977134411       -2.0889768242        0.4285526816
 C        -0.5283109491        0.3350672549        0.8010193925
 O        -1.7562942015       -0.7232454294        3.1766775202
 O         1.9752328708       -0.5968607250        1.9786542835
 C         1.7746359163       -2.1569892188       -1.3083087700
 C         1.0595367819       -3.3899868259       -1.8115112196
 C         1.9241282183       -4.3239727407       -2.7004222995
 C         2.2082710026       -3.5265768096       -3.9847600006
 C         1.1088435437       -3.5017474955       -5.1401921581
 O        -0.1205872345       -3.7839886657       -1.5668640640
 O         3.1224118047       -2.7583656996       -4.1138411494
 C         3.4314473156       -4.4629624120       -2.0562024031
 C         1.4992543427       -5.7527101341       -2.9405202992
 C         1.8180717320       -4.1544306141       -6.4764516854
 C         1.1576453408       -3.4942055640       -7.6838050151
 C         1.6194765881       -4.0641606126       -9.0393037853
 C         3.1964549593       -4.0402743087       -9.0064860258
 C         3.7206217964       -2.5939674345       -9.1721570701
 C         0.9146798446       -5.4997368069       -8.9046022639
 C         1.1103206132       -3.1183350121      -10.1217297773
 O         0.3586979397       -2.5822241271       -7.4906881423
 O         3.8912047834       -5.0653534366       -9.0090726538
 C         5.2797375892       -2.4722560655       -9.0752809308
 C         6.0023057456       -2.0841210421      -10.3508816844
 C         7.5923947958       -2.2056695731      -10.2166712996
 C         7.7672838936       -3.4987779727      -10.9761416765
 C         7.3991538938       -3.6484440172      -12.5441418198
 O         5.2853803513       -1.8260522648      -11.2624424342
 O         8.0864309586       -4.4912641972      -10.4025905170
 C         8.3815234664       -1.1519159884      -11.0775561771
 C         8.0449784231       -2.0923123901       -8.8129776774
 H        -5.2138424925       11.0980128187       -0.8142011159
 H        -6.6723941432       10.6381580797        0.1651532983
 H        -5.4153794461       11.4358371601        0.8740037977
 H        -3.4514762165        7.6206175229        2.2503020928
 H        -3.4738121371        6.3160924757        1.0994337686
 H        -4.1101585621        6.4224173363       -1.0488126031
 H        -4.8881107912        7.6652998620       -2.0181887769
 H        -5.5281799650        7.1012407256       -0.4000479727
 H        -4.2085984664        9.8307620030       -2.2378341099
 H        -3.0255943449       10.4419969386       -1.1153033691
 H        -2.8747948059        9.0373211056       -2.3815498867
 H        -1.2100665996        5.6565235890        1.6831917960
 H        -0.8161226994        7.2054621743        2.4576754534
 H        -4.5036965656        4.1056575683        4.7841387947
 H        -4.3541355041        2.2543593429        4.6722367763
 H        -3.3038704965        4.1086504818        1.0168884942
 H        -4.5025240058        4.7874574531        2.2443768061
 H        -4.1823372352        2.9750811458        2.0493995653
 H        -1.1666477303        3.8180131447        1.2750083642
 H        -0.1895747108        3.4833042592        2.6609490748
 H        -1.3774412876        2.2919276622        2.1325153529
 H        -4.7013699291        3.9149414242        6.9442235764
 H        -2.9285190965        3.5183348901        6.9620987350
 H        -6.0751085856       -1.8461086502        8.7921819946
 H        -5.9877474218       -1.1010222570        7.4547156265
 H        -3.2268324176        2.1888311281        9.6121313748
 H        -4.6355201833        2.0433365703       10.6645987449
 H        -4.6412986353        3.3564466028        9.5807805970
 H        -7.0178769641        1.1626899724        9.3207025472
 H        -6.6138699141        2.7266284891        8.6001338132
 H        -6.9817538853        1.3022040977        7.5515761626
 H        -4.1487943050       -3.2375188867        8.5125848931
 H        -5.2131894544       -3.3144139367        7.0283763253
 H        -0.0223977438       -4.0567122793        4.7157932361
 H        -1.8743588369       -3.6821452249        4.2524865085
 H        -0.6922252580       -3.1977136336        8.9606525623
 H        -2.1933298408       -1.9470984092        8.9884899651
 H        -0.8395705915       -1.3908345068        8.1272044624
 H        -0.9862691095       -4.7816562422        7.6978546029
 H        -2.5918510016       -4.7322416780        8.1485605785
 H        -2.3047380479       -4.9396418812        6.3839657125
 H         0.3265471358       -3.0681034786        2.8461425958
 H         0.6774271131       -1.9590163192        4.1567294262
 H         3.0882301520       -2.1332416293        0.4077518119
 H         1.6983487611       -3.2665362016        0.5600167362
 H        -0.6382560065       -3.1588183450        0.6799583973
 H        -0.7417683276       -1.7825838250       -0.6700808712
 H        -1.9299207257       -2.1605013420        0.7579670904
 H        -0.9709185618        0.1384599885       -0.1732618599
 H        -1.4806468871        0.4003124576        1.4064427044
 H         0.0925641476        1.2764564931        0.8286204006
 H         1.1117551811       -1.2866933863       -1.4976226253
 H         2.6374132865       -2.0440270100       -1.9308905966
 H         0.2475919611       -3.9849449027       -4.7237774496
 H         0.7826862913       -2.5297898150       -5.5728770211
 H         3.4518532354       -4.7405543380       -0.9921525418
 H         4.1309252436       -3.5020240372       -2.0042957948
 H         4.0424783114       -5.1907917987       -2.5177935038
 H         1.5029157869       -6.4382904782       -2.0422343301
 H         0.5285633858       -5.7524136348       -3.4751047145
 H         2.3502089976       -6.2348957759       -3.4488040978
 H         1.6672992319       -5.1944695828       -6.5901448923
 H         2.8990234444       -3.8323249464       -6.5976302848
 H         3.6295299003       -2.2526066501      -10.2464625111
 H         3.0055704237       -2.0140499502       -8.5703111298
 H         0.4895424007       -5.8116138409       -7.9976801884
 H         1.6715727574       -6.2931471714       -9.2966925035
 H         0.1421955655       -5.7134534403       -9.6246481719
 H         1.8640785626       -2.4040944587      -10.3255234741
 H         0.9094955846       -3.7112058956      -11.0666946248
 H         0.2022283346       -2.5455092651       -9.8168085413
 H         5.4961745777       -1.7167344924       -8.3391381026
 H         5.7222302942       -3.5174141418       -8.6456210302
 H         6.4209662568       -4.0064994719      -12.5411628348
 H         7.5831637284       -2.7321996397      -13.0495875393
 H         7.9942619243       -4.4960158991      -12.7286527039
 H         9.4318933947       -1.4440090469      -11.0696827109
 H         8.3299618206       -0.1348365088      -10.7200405201
 H         8.0310162660       -1.2805335439      -12.0440539064
 H         9.1453949751       -2.0160871775       -8.8561436585
 H         7.5375350405       -1.2548731840       -8.4056476331
 H         7.9451312693       -2.9433921978       -8.2316521301
 Na       -1.9244158749        0.2199000474        5.4704092518
