155

 C        -2.2587072957       10.9046617696        1.1117012407
 C        -3.2583878775        9.9191541044        0.6781783074
 C        -2.8421491037        9.0261620569       -0.5681198354
 C        -1.9757069144        7.6910907127       -0.2335007202
 C        -2.5228879084        6.5118589255        0.6332878994
 C        -4.3031560786        8.4877071993       -1.1989240250
 C        -1.9551856363        9.8189357102       -1.5066787588
 O        -4.3601810450        9.8641113330        1.1838062465
 O        -0.7518262912        7.6843489003       -0.5041109660
 C        -2.4300397758        6.8378580220        2.1492377901
 C        -2.5137578187        5.7110177131        3.3816362581
 C        -3.2308247705        4.3335874062        3.1356089464
 C        -3.1159224378        3.5619815855        4.4704899785
 C        -4.1954224416        3.7680954013        5.7749503803
 O        -1.9216782592        6.0544771715        4.3680369653
 O        -2.1991771997        2.7498251545        4.6030646127
 C        -4.8225511048        4.6796618611        2.8566706984
 C        -2.5213357609        3.5332718584        1.9693242246
 C        -3.7156699510        3.4014140568        7.2198228635
 C        -3.7773945665        1.9275859170        7.5735190064
 C        -4.3013022196        1.4976878889        9.1454219761
 C        -3.5009346878        0.2671428558        9.4790354619
 C        -4.2064340799       -1.3156831083        9.3150209470
 C        -3.8958969013        2.5858321753       10.3497815074
 C        -5.8278576405        1.3239248971        8.9456846643
 O        -3.6893111077        0.9828355904        6.7693950709
 O        -2.4270390495        0.4816307815        9.9542233869
 C        -3.2137148272       -2.2870780337        8.9090272574
 C        -2.5640339375       -2.0079765922        7.5737498715
 C        -0.9941478758       -2.1476409172        7.4926455029
 C        -0.5783455282       -1.6071607083        6.0719641171
 C        -0.5038617717       -2.6813705044        4.9054747690
 O        -3.1716261561       -1.4983282944        6.6364103623
 O        -0.1202368908       -0.5292355788        5.8711128309
 C        -0.2390951337       -1.4538563005        8.7700837852
 C        -0.7560021694       -3.7247922315        7.5521558877
 C         0.1613299571       -2.0762747952        3.6140103286
 C        -0.8833607064       -1.6663261001        2.5879943346
 C        -1.2439136299       -2.5692613884        1.2886172375
 C        -0.1539239875       -2.5601511957        0.0571446522
 C         0.9229351907       -3.6829533437       -0.0978188476
 C        -1.4772197318       -4.0585400291        1.9599365386
 C        -2.7363975450       -2.2684219832        0.7613645294
 O        -1.5158059810       -0.6537516812        2.8030736400
 O        -0.0965069153       -1.5978089542       -0.6572361928
 C         1.7351948763       -3.4042183417       -1.4207601984
 C         2.4062229238       -4.7032293820       -1.9406357242
 C         3.0131511549       -4.7635504438       -3.4414663711
 C         2.6831104543       -3.4143639255       -4.2580146004
 C         1.3557871561       -3.0713162669       -5.0802801616
 O         2.3945691576       -5.7998203469       -1.3481804169
 O         3.5365776651       -2.5916439421       -4.2585785400
 C         4.5912172504       -4.6650095416       -3.3945647877
 C         2.6058011477       -6.1622630421       -3.9042640201
 C         1.3926729491       -3.8652828876       -6.3809471335
 C         0.4939266163       -3.2472204161       -7.6185361588
 C         0.6204228630       -3.9678812363       -9.0611554072
 C         2.0076584069       -4.2685947532       -9.5259433083
 C         2.8683357456       -3.0026707574       -9.7565206832
 C        -0.3878206244       -5.1813415239       -8.9818212080
 C         0.0403283259       -2.9388598445      -10.0711290271
 O        -0.1137765002       -2.1987994876       -7.5559289831
 O         2.4109500303       -5.3963807325       -9.7811755237
 C         4.3027179302       -3.1871846677       -9.2087725750
 C         5.2473022826       -1.9972739232       -9.5566551558
 C         6.6482679682       -2.4063721277      -10.1627654403
 C         6.4200197633       -2.7677092854      -11.7383103597
 C         6.5052644263       -1.6944191785      -12.7821001095
 O         4.8527917827       -0.8611550363       -9.5550618690
 O         6.4171436248       -3.8832705323      -12.1739363023
 C         7.6889899733       -1.2282173341      -10.1867320866
 C         7.1795880480       -3.7398497634       -9.4155726818
 H        -2.1900746969       11.8196561751        0.5055544982
 H        -2.5059599717       11.2765069754        2.0418265268
 H        -1.3525238268       10.2169110077        1.0991551846
 H        -3.4808998689        6.1098586621        0.5210228719
 H        -1.9845861479        5.5542611838        0.5129680743
 H        -4.7114890047        9.1841376695       -1.9774741234
 H        -5.0841584562        8.5907285473       -0.4986919400
 H        -4.0511823994        7.5316771276       -1.7932005367
 H        -2.4852676532       10.6615854779       -1.8570546349
 H        -1.0199225921        9.9995894401       -0.8891786725
 H        -1.7861724952        9.2758400131       -2.4461168886
 H        -1.5197876055        7.4345430870        2.4379192569
 H        -3.2926476907        7.4878909759        2.4872310903
 H        -4.6350701271        4.7650530237        5.8088119100
 H        -5.0778856857        3.2476397700        5.2155824698
 H        -4.8020230639        5.0413652232        1.8275176295
 H        -5.0379124234        5.5439738348        3.4507124763
 H        -5.5347871787        3.8328393882        2.9392294290
 H        -2.7335700421        3.7748732407        0.9155716326
 H        -1.4832308266        3.5472601498        2.1882000690
 H        -2.9003580496        2.5126921735        2.2375019971
 H        -4.1501445370        4.0121425567        7.9052453058
 H        -2.7420686653        3.6412146480        7.3913811104
 H        -4.4717147382       -1.4033771701       10.4291920656
 H        -4.9808501564       -1.1719323440        8.5918842361
 H        -4.0496723724        3.6077264754       10.0267579995
 H        -3.0168359999        2.2626135176       10.9392239717
 H        -4.6532883342        2.5045495308       11.1718420009
 H        -6.3448766131        0.6998238927        9.6414995102
 H        -6.3953813701        2.2258619580        8.8079646567
 H        -5.9199171501        0.7396054957        8.0292935596
 H        -2.4365544957       -2.5913521518        9.6437005380
 H        -3.6722609944       -3.2591772217        8.6126491975
 H        -0.0764802100       -3.6810774029        5.2991600432
 H        -1.4484646473       -3.0614685963        4.5345274234
 H         0.5036518782       -0.8046805681        8.2320737854
 H        -0.0765122642       -2.2337012202        9.4440566843
 H        -0.9197569914       -0.6850562122        9.0954380875
 H         0.3286134775       -3.8363826817        7.5934677007
 H        -1.0104699606       -3.9340220471        8.5886995913
 H        -1.5050431480       -4.1666547703        6.8416970862
 H         0.8817477179       -2.6983306869        3.1795925175
 H         0.6414358159       -1.1673747630        4.0989431885
 H         1.5353003983       -3.9263990326        0.7750792056
 H         0.4256761114       -4.6142206220       -0.1872010812
 H        -1.3006604311       -4.1647679503        2.9893864040
 H        -0.9257392710       -4.7124265505        1.2770137130
 H        -2.4570395994       -4.3089941935        1.8226062990
 H        -2.8774078343       -2.4733984619       -0.2844887183
 H        -3.3809955319       -3.0303172349        1.1386976037
 H        -3.0810919244       -1.2480492206        0.8999246480
 H         0.9994019455       -3.1701226020       -2.2298134848
 H         2.4877892557       -2.6799527915       -1.1858322460
 H         0.4780493246       -3.3696751559       -4.5378884348
 H         1.3200301641       -1.9723213552       -5.2262670402
 H         4.9386538520       -5.3783454641       -2.6928233529
 H         5.2470710732       -3.8335908981       -3.1168343808
 H         4.8725758067       -5.0987174597       -4.3052208270
 H         1.9332587093       -6.0693662947       -4.8149993934
 H         3.5282278320       -6.5718701088       -4.3130405656
 H         2.0708898795       -6.7377086250       -3.1288842256
 H         1.2461998487       -4.9571572013       -6.3174224217
 H         2.3945627855       -3.8339881517       -6.6929150489
 H         2.9535347952       -2.9532150381      -10.8519574790
 H         2.4261083436       -2.0913177910       -9.4378149819
 H        -0.0109171084       -6.0640379439       -8.5991946398
 H        -0.8081377271       -5.4255017478      -10.0151995039
 H        -1.2176957231       -5.0708008355       -8.3445711917
 H         0.1671677054       -2.0534711059       -9.5535491981
 H         0.4688145349       -2.7740450196      -11.0055558691
 H        -0.9825390606       -3.0965294164      -10.1154377738
 H         4.3293120681       -3.3434386906       -8.1445900404
 H         4.5986817542       -4.1782551937       -9.7177110424
 H         6.0971241621       -0.8201165443      -12.4970153803
 H         7.5781861140       -1.5530079409      -13.0753504470
 H         5.9666065946       -2.0269692084      -13.7166077725
 H         8.6559452487       -1.4880181089      -10.6335243486
 H         7.7983311061       -0.8929831708       -9.0954065775
 H         7.1369189704       -0.5034551389      -10.7606189975
 H         8.2525782428       -3.9372885036       -9.7261527040
 H         7.1345223613       -3.4505162044       -8.3524716516
 H         6.5893272410       -4.6217510950       -9.6384034526
 Na       -2.0023906459        0.3959483684        5.1322315651
