155

 C         0.2198725093        9.4744924147        1.9984627510
 C        -1.1958349246        9.1065641119        1.6538015606
 C        -1.3952619732        8.7791199379        0.1557909824
 C        -0.6862945202        7.4454109622       -0.0806510339
 C        -1.2221634264        6.0567681187        0.2056737165
 C        -2.9547194651        8.6949172325       -0.1687415134
 C        -0.7378357706        9.8882877074       -0.8195265076
 O        -2.0180169485        8.9015872818        2.5123037617
 O         0.5278815799        7.4320074871       -0.0533856287
 C        -2.3812988322        5.8698830751        1.1509734364
 C        -2.2909335548        4.5122403400        2.0672426359
 C        -3.5922717171        4.2446531002        2.9599975879
 C        -3.2593427302        3.0894966248        3.8663664531
 C        -2.5606961855        3.3507418979        5.1954158485
 O        -1.3583401317        3.7816389824        2.1765841178
 O        -3.5482114795        1.9704078613        3.4599213908
 C        -3.8028088850        5.6067744692        3.8245525771
 C        -4.8801975349        3.9253184510        2.1058556365
 C        -2.2789827396        2.1256227224        6.1486202925
 C        -3.3236247738        1.4035288417        6.9575224275
 C        -3.4228817043        1.5583818969        8.4574739363
 C        -1.8974598505        1.1330441237        8.8911673379
 C        -1.7004927192       -0.1297893417        9.6017193615
 C        -3.6441028417        2.9879276860        8.7909899913
 C        -4.5316197755        0.8218934927        9.3444158612
 O        -3.9230125000        0.5717514190        6.3034534754
 O        -1.0208261553        1.8639870157        8.5043980066
 C        -0.6872231710       -0.9188795773        8.7446638618
 C        -0.8236365477       -0.8437234371        7.2532428762
 C         0.6991076210       -0.4074543612        6.5119319774
 C         0.1914146708       -0.6623912901        5.0561782319
 C         0.4359956238       -2.0353563035        4.2296783234
 O        -1.8697565030       -1.0283565100        6.7399725153
 O        -0.3917533575        0.2357485150        4.4216999877
 C         1.2884880216        0.9367377809        6.8361206977
 C         1.6874201075       -1.4875461369        6.8762434433
 C         0.0241611267       -1.8915918589        2.7462778697
 C        -1.3549013045       -2.3913312819        2.5859524925
 C        -1.5779640782       -3.9108821028        2.3174822597
 C        -1.6274724896       -4.0775106967        0.7271583484
 C        -0.8223865717       -5.1633208138        0.0645202680
 C        -0.4978450564       -4.8144083105        3.0764307904
 C        -2.9839425319       -4.2346249488        2.9625287452
 O        -2.2941678618       -1.6073825270        2.6370101429
 O        -2.3231066571       -3.3143603558        0.1128069797
 C        -0.3660940748       -4.8193015885       -1.3943766089
 C         1.0105570685       -4.2029289401       -1.2841283995
 C         2.1445395566       -4.5683395165       -2.2694606412
 C         1.6228915670       -3.9090313974       -3.6504371697
 C         0.5457354614       -4.6088907101       -4.5806058707
 O         1.1464810880       -3.3238202407       -0.4225878282
 O         1.9207557660       -2.7844300685       -3.8124083597
 C         3.3965942401       -3.9529385138       -1.7993421499
 C         2.5096813841       -6.0287913577       -2.5084480234
 C         0.7853739408       -4.3267596633       -5.9980226270
 C        -0.4323039293       -3.5527116194       -6.5815711549
 C        -0.5042987222       -3.2281654601       -8.1133052735
 C         0.8880999669       -3.4265528400       -8.8556961116
 C         2.1100045844       -2.3945897739       -8.8225749390
 C        -1.4526214658       -4.4382664692       -8.6022286233
 C        -1.2736476950       -2.0431571515       -8.4387864237
 O        -1.3909643375       -3.3314500570       -5.8857196031
 O         1.1037052950       -4.5618568850       -9.2897444525
 C         3.0819591655       -2.6960725512      -10.0403411092
 C         4.4130226723       -2.0871426883      -10.1114041151
 C         5.4376026225       -2.5438720439      -11.2668924295
 C         5.6173497936       -1.2795951965      -12.2906462435
 C         6.5440944232       -0.1425737863      -11.8304842999
 O         4.6936443065       -1.1816163494       -9.4057980285
 O         5.2201838529       -1.3582468890      -13.3871064553
 C         6.6420396987       -3.1440307056      -10.5437074581
 C         4.8690073100       -3.6699480905      -12.2353390379
 H         0.5617972818       10.3330371186        1.5079211214
 H         0.2496901379        9.6604515928        3.0647289703
 H         0.7745552029        8.5286293936        1.6840317174
 H        -1.6236917987        5.7289537546       -0.7812950406
 H        -0.3398411804        5.3475413285        0.4409341759
 H        -3.3815191670        8.1385729739        0.7094917814
 H        -3.1843413777        8.3170293867       -1.1301203667
 H        -3.4978874824        9.6795142591       -0.2545481938
 H        -1.4994629567       10.7010091305       -0.9935111726
 H         0.2461943289       10.2217259485       -0.5944231468
 H        -0.9034798017        9.3184739039       -1.7193799319
 H        -2.4250906681        6.6872582950        1.8147874498
 H        -3.3963856359        5.9090430239        0.6803716997
 H        -1.5863926336        3.8839016527        5.1762562005
 H        -3.2169176735        3.9697678163        5.7576847368
 H        -4.2014992205        6.4658221295        3.3785295018
 H        -2.9151553424        6.0341880782        4.2757341821
 H        -4.4130472987        5.2296786199        4.5843806643
 H        -4.7211124862        4.7397828702        1.3643683485
 H        -4.8997113090        2.9731198992        1.6017474601
 H        -5.7824927365        4.0791282857        2.6681689446
 H        -1.5930136071        2.6254854788        6.8370603165
 H        -1.7584668966        1.3549248859        5.5591647931
 H        -1.3912133758       -0.2937499002       10.5732334974
 H        -2.5997548082       -0.7806239590        9.5994972417
 H        -2.7132736034        3.6235126505        8.8002886318
 H        -3.8950639214        3.0514033666        9.8884586533
 H        -4.2728386997        3.4834171305        8.0315088876
 H        -4.2867015803        1.0839576794       10.3753028364
 H        -5.5294719362        1.1028143654        9.0343352455
 H        -4.4361179838       -0.2589627677        9.2837500331
 H         0.3453191926       -0.6084373030        9.0694578197
 H        -0.8253786872       -1.9953664573        9.0861216574
 H         1.4871443297       -2.5341528107        4.4205427744
 H        -0.2042000905       -2.8135782011        4.6380309778
 H         0.8909822014        1.6519582632        6.0150747294
 H         2.3334993705        0.7595814780        6.9520635348
 H         0.9722835641        1.4587433745        7.7733147284
 H         1.3775719348       -2.5139914395        6.5253844477
 H         2.7503074833       -1.3466888532        6.5937074130
 H         1.8835169593       -1.7950657187        7.9284155949
 H         0.6295570071       -2.5972201611        2.1581505720
 H         0.1103243755       -1.0125939398        2.2513006057
 H        -0.0420699013       -5.4268637761        0.7934192443
 H        -1.4974370645       -5.9931171875        0.0270152146
 H         0.4310499111       -4.3013870428        3.1387036581
 H        -0.4151472619       -5.8844127555        2.8286279503
 H        -0.6749681168       -4.9877287602        4.0997070725
 H        -3.1685878637       -3.9396262554        4.0456885037
 H        -3.6801586453       -3.8837810033        2.2269725178
 H        -3.1138680029       -5.3034546607        2.9943972349
 H        -0.4890588040       -5.7125052135       -2.1153926436
 H        -1.1816563395       -4.1518825420       -1.7490654425
 H         0.3619828843       -5.5963471113       -4.3451185171
 H        -0.2955230452       -3.9722229794       -4.2833102336
 H         4.1677151320       -4.2405085542       -2.5362163160
 H         3.7428549110       -4.6469589306       -0.9182710050
 H         3.3628537117       -2.9126281821       -1.5699696779
 H         1.6316194808       -6.4848846774       -2.9697106645
 H         3.4640888418       -6.1073199783       -2.8608616202
 H         2.4746933796       -6.6061567587       -1.5858702732
 H         0.9311695787       -5.1563941789       -6.6601258399
 H         1.7845641476       -3.7767889824       -6.0997690947
 H         1.7360492808       -1.3927615854       -8.9227233237
 H         2.5545121861       -2.4982157225       -7.8217782008
 H        -1.9979999366       -4.2889434939       -9.5150470890
 H        -2.2142595393       -4.4061671179       -7.8432506055
 H        -0.9323158243       -5.3663262693       -8.5082544325
 H        -0.6824310928       -1.2923694222       -8.8623393817
 H        -2.0202795838       -2.3084930473       -9.1097565611
 H        -1.7982591757       -1.7269728773       -7.5775892911
 H         3.0756662883       -3.9046502731      -10.0719842875
 H         2.5261864562       -2.4506727166      -10.9320715845
 H         6.5721514459        0.2659668249      -10.8129080167
 H         7.6193472815       -0.2474518411      -12.1879150527
 H         6.3317350571        0.8274660457      -12.3650789026
 H         7.3358724438       -3.5722112918      -11.2818150817
 H         6.2769907267       -3.9283498429       -9.9491639776
 H         7.3178537042       -2.5656336551       -9.8657856309
 H         5.6690664229       -4.0011392978      -12.8848033360
 H         4.5403280939       -4.6343619010      -11.7593533563
 H         4.0844001497       -3.2655293192      -12.9302808644
 Na       -2.6777210690        0.0953421578        4.2300847631
