155

 C         0.0674217387        9.5684324198        2.6261470676
 C        -0.8256344828        8.5575356138        2.0148822806
 C        -0.9356486302        8.4079711062        0.4608511825
 C        -0.2872450566        6.9944606328        0.1854776162
 C        -1.0635590324        5.6609830122       -0.1114231332
 C        -2.3573901197        8.5084064267       -0.1493654108
 C         0.0000127818        9.5127887853       -0.3693385510
 O        -1.4672830169        7.7130418862        2.6250405156
 O         0.8900888774        7.0076137290        0.0416513007
 C        -2.4613702202        5.5858876997        0.7443431190
 C        -2.5026130233        4.2915130882        1.6612493855
 C        -3.6772785427        4.3487090766        2.8599137849
 C        -3.0215633755        3.3905544366        3.8803768964
 C        -2.5193560482        4.0333631955        5.1045338460
 O        -1.7668319986        3.3153149306        1.5420565058
 O        -2.9470780958        2.2192938317        3.6606213764
 C        -3.9943455263        5.7335217534        3.4283711754
 C        -4.9502197102        3.6637087784        2.1451543425
 C        -1.9690177673        3.0642994551        6.1405223442
 C        -2.9763062571        1.8905652489        6.8373700916
 C        -3.2951633824        1.8476475013        8.3726486730
 C        -1.9895564129        1.1917411169        9.2725992804
 C        -1.4305850475       -0.2007038419        8.8043345926
 C        -3.5920320255        3.2717035304        8.8125730774
 C        -4.5487892486        0.9658792665        8.5238962241
 O        -3.2219192198        0.9685468501        6.0878943473
 O        -1.3720145934        1.8621644689       10.0879393916
 C         0.0195785859       -0.0659713099        8.2502826720
 C         0.0245770478       -0.3225719881        6.7340064676
 C         1.2836123900       -0.1735991317        5.7042856746
 C         0.6399713044       -0.3719885706        4.3704806389
 C         0.5772896024       -1.9146545149        3.7222769276
 O        -0.9900115290       -0.8934506325        6.3573279593
 O         0.0578327444        0.5508637621        3.8293742200
 C         2.0057022050        1.1907777073        5.7196299541
 C         2.2275074548       -1.3531741959        6.0625119918
 C        -0.3150244484       -1.9966834099        2.4663232887
 C        -1.4318912507       -2.8588656794        3.0351918990
 C        -1.5159668699       -4.3626642972        2.4063703769
 C        -1.8076720477       -4.0389200337        0.8885036439
 C        -1.7565740557       -5.3223914824       -0.0958078165
 C        -0.3267066346       -5.2848666238        2.6458064684
 C        -2.7814327175       -5.1029178949        2.9852789044
 O        -2.1033212934       -2.4282247816        3.9564028099
 O        -2.5272329629       -3.0852367388        0.6160680982
 C        -1.0163149950       -5.1642970093       -1.4792811650
 C         0.2573760871       -4.4467537283       -1.0804862806
 C         1.6600557139       -4.4018852737       -1.8801051613
 C         1.6346740371       -3.9383451108       -3.5231776038
 C         0.4353039335       -4.5387895826       -4.3284008677
 O         0.2490330915       -3.8675450554       -0.0069379818
 O         2.3257482648       -3.0933116504       -3.9725845993
 C         2.5649932071       -3.3427356979       -1.2243242526
 C         2.3697734534       -5.8340599557       -1.8004104524
 C         0.4917437853       -4.3687474016       -5.8669517330
 C        -0.7407680777       -3.5845325481       -6.3535158311
 C        -0.6064937193       -3.0389016691       -7.8913422280
 C         0.7915222269       -3.5024211462       -8.4867213368
 C         1.6948274688       -2.4599707375       -9.1487800502
 C        -1.7635456389       -3.9589247290       -8.7473845100
 C        -1.0019289379       -1.5121153137       -8.0336809420
 O        -1.7285081769       -3.4230205376       -5.6150829482
 O         1.0963172096       -4.7115151513       -8.3913523575
 C         2.4518825744       -2.8912137797      -10.3814458441
 C         3.8716005015       -2.3783315952      -10.2356024728
 C         4.7814111259       -2.3218839877      -11.5679569601
 C         5.1732108438       -0.8689269339      -11.9990696052
 C         6.2175962478       -0.2269129628      -11.2266496958
 O         4.2373832751       -1.8235030797       -9.2345149236
 O         4.6913936907       -0.3346587895      -12.9314651640
 C         5.9126969254       -3.2328371582      -11.0375034466
 C         4.1171318436       -2.9944395003      -12.8003668945
 H        -0.2422243037       10.5127829522        2.2130563297
 H         0.0163383941        9.6444108744        3.6729302269
 H         1.1471687357        9.2905747075        2.2560483699
 H        -1.1064658451        5.3547849529       -1.1906072785
 H        -0.3851610785        4.9407289183        0.3114805292
 H        -2.6666061693        9.6047474763       -0.3046552992
 H        -3.2652426679        8.3275421183        0.5226939295
 H        -2.4845258510        7.8393401764       -0.9710361761
 H        -0.4250079248       10.4814111071       -0.0992661532
 H         1.0194124447        9.5397989968        0.0001855898
 H         0.1509989213        9.1226706200       -1.4265870833
 H        -2.6428107884        6.4355977676        1.4074386663
 H        -3.2883435060        5.7022263125        0.0264694610
 H        -1.9193704206        4.8580964220        4.9460475269
 H        -3.3575958451        4.5962836536        5.5530910078
 H        -4.5967441224        6.3110402781        2.7711312314
 H        -3.1258229831        6.3329363069        3.8073453014
 H        -4.6038792858        5.8136299897        4.2910002757
 H        -5.1995413139        3.9517604348        1.1496454256
 H        -5.0894937814        2.6016940785        2.4306691101
 H        -5.7329336435        4.2422853113        2.6519032546
 H        -1.5605951411        3.7667888116        6.9778631662
 H        -1.2491846693        2.4992874646        5.7246025139
 H        -1.5071884719       -0.9515034653        9.5958962452
 H        -1.9649035942       -0.5331114164        7.9364382798
 H        -3.0105353543        3.8974131961        8.0861934087
 H        -3.4837310297        3.4924335089        9.8631774115
 H        -4.5982117700        3.5060886358        8.7091617737
 H        -5.0317613971        1.2257976637        9.4653407899
 H        -5.3170930321        1.2314693129        7.7915532687
 H        -4.2551854759       -0.0656186568        8.4418551311
 H         0.5829314238        0.8446111810        8.5498885256
 H         0.5524853797       -1.0167209744        8.5912527951
 H         1.6594667573       -2.1638824639        3.6557208369
 H         0.2822159727       -2.5555467948        4.5776334061
 H         1.2772257581        1.7933268757        5.1836737349
 H         2.9038349129        1.3848561127        5.0673187042
 H         2.2028351907        1.5143128009        6.7869029890
 H         1.7689807762       -2.2538736748        5.8503483592
 H         3.1212419304       -1.4223865302        5.5298876281
 H         2.5456152459       -1.4872293567        7.0354106625
 H         0.0262191213       -2.5374441361        1.5461100057
 H        -0.6853542280       -0.9883060208        2.1477977724
 H        -1.2286778767       -6.0278889354        0.5045277018
 H        -2.7761590884       -5.7465694584       -0.2232247812
 H         0.6409108480       -5.1157594324        2.1044421033
 H        -0.5499654322       -6.2323486438        2.1731490233
 H        -0.1630411101       -5.4452871842        3.8190763940
 H        -3.1837280143       -5.5782937687        2.1112976752
 H        -2.5630913186       -5.9646190227        3.6593563641
 H        -3.3713166223       -4.4268015739        3.5769008593
 H        -0.8413129168       -6.1877135080       -1.7998970757
 H        -1.6812613531       -4.5223545426       -2.0792561696
 H         0.5766109741       -5.6320196803       -4.1244215785
 H        -0.4524982308       -4.1404661938       -3.9300585230
 H         1.8535943211       -2.7828431099       -0.6164142920
 H         3.0179205232       -2.5323700168       -1.9308354105
 H         3.4233098049       -3.8595006605       -0.8240838055
 H         1.6425042093       -6.6269698233       -2.0680739525
 H         3.1007264753       -5.7920958342       -2.6605440652
 H         2.8038568114       -5.9729179123       -0.7573306836
 H         0.5798501562       -5.2907636255       -6.4807014136
 H         1.4048088138       -3.8621249865       -6.2632070309
 H         1.1898122749       -1.4538460854       -9.2972209576
 H         2.5033315856       -2.1336933154       -8.4306059463
 H        -1.4174333692       -3.8871180619       -9.7489337447
 H        -2.6850803330       -3.5487427543       -8.6849709193
 H        -1.7631110445       -5.0552061607       -8.4775632886
 H        -0.4544355793       -1.0017169183       -7.2590518917
 H        -0.8151160107       -0.9918919859       -8.9771947364
 H        -1.9354081362       -1.2675635538       -7.6802888490
 H         2.4637604210       -3.9098827282      -10.4946945561
 H         1.9216665986       -2.6631501712      -11.3508202631
 H         6.4090779916       -0.6656292621      -10.2659721234
 H         7.0751743454       -0.3490873678      -11.8369266097
 H         5.8232680560        0.8466629744      -11.1512528669
 H         6.9744650519       -2.9896550029      -11.4125035309
 H         5.8538983829       -4.3089272281      -11.2284775029
 H         5.9472958925       -3.0601503663       -9.9499209490
 H         5.0591425928       -3.2256913069      -13.3851337554
 H         3.6077348936       -3.9384272498      -12.5988182100
 H         3.4333670520       -2.2767980407      -13.3270295907
 Na       -1.9731752931        0.0670181978        4.1407633701
