155

 C        -0.2910736782        9.7295700422        2.7305293709
 C        -0.4133160967        8.2304210587        2.2008449146
 C        -0.0359912813        7.9699486459        0.7192496325
 C        -0.1757547521        6.4966158772        0.1867777460
 C        -1.5479711941        5.9769683784       -0.1805491615
 C        -0.8663799650        8.8542304216       -0.2420492465
 C         1.4741471729        8.3002359744        0.6868497204
 O        -0.7793261245        7.3718582851        2.9833170367
 O         0.8372557347        5.8206390482        0.0255913329
 C        -2.5534086194        5.6644399322        1.0081217303
 C        -2.6176363570        4.2135933274        1.1982363183
 C        -3.7300477174        3.7393904186        2.2203487266
 C        -2.9356215322        2.7751468926        3.2718166985
 C        -3.0147797431        3.2590509839        4.8145107153
 O        -1.9658586107        3.3754074201        0.6363419948
 O        -2.4559952939        1.6817609452        2.9640730278
 C        -4.5791595512        4.7976036085        2.9704944840
 C        -4.5889653156        2.5541632231        1.5395726932
 C        -1.9461052691        2.6857552422        5.7893859231
 C        -2.5615411605        1.6997367981        6.8812876229
 C        -2.5140872701        2.0359597047        8.4176780232
 C        -1.4220030942        1.3126481308        9.2688676622
 C        -0.2662994391        0.4270934371        8.6186433354
 C        -2.3947598979        3.6442259844        8.7536327817
 C        -3.9300320615        1.5836996949        9.0650888598
 O        -3.2802644366        0.7877767020        6.4520905943
 O        -1.4078271480        1.4662881995       10.4441982143
 C         0.6990945280        1.0680880647        7.5659627733
 C         0.6914939117        0.1719100456        6.2644986157
 C         1.8321198567        0.0762391835        5.1969467608
 C         1.1672512187       -0.3495939407        3.8155972830
 C         0.5319690078       -1.7388831267        3.5578266720
 O        -0.3303248545       -0.4518750960        6.1089338372
 O         1.0159073951        0.5284789060        2.9614953532
 C         2.6465324128        1.4002834075        5.2554315961
 C         2.8205431921       -1.0550433287        5.6791415732
 C        -0.5565866409       -1.6842455669        2.4380900924
 C        -1.7525687097       -2.5540418884        3.0633893661
 C        -1.7888203507       -4.0912099378        2.7219129005
 C        -2.0869060394       -4.1062130982        1.1248697999
 C        -1.7794257681       -5.4239258506        0.2561354272
 C        -0.4910166922       -4.6462874027        3.3924560676
 C        -3.0546436252       -4.6425026544        3.4485888987
 O        -2.3516512680       -2.0890311602        4.0042209772
 O        -2.5200066314       -3.1055997411        0.6323514074
 C        -1.1642778687       -4.9519344406       -1.0905124511
 C         0.1844161837       -4.3637851417       -0.9075753412
 C         1.3238847200       -4.6160152712       -1.8499248822
 C         1.1189729062       -4.1525141401       -3.3453802356
 C         0.0518425872       -4.7058897664       -4.2698769561
 O         0.4090481703       -3.6000115798        0.0408387471
 O         1.8981063540       -3.3954444644       -3.8746989056
 C         2.6212797659       -3.9717644794       -1.2774053992
 C         1.6751777168       -6.0877769399       -1.8943100061
 C         0.2064637061       -4.1827999569       -5.6163167673
 C        -0.9485776029       -3.4415220004       -6.1915033174
 C        -0.8857971997       -2.8610529762       -7.6438593483
 C         0.1446411794       -3.5101460664       -8.5078135874
 C         1.0029729614       -2.6147465817       -9.3413520351
 C        -2.2322067520       -3.1734623041       -8.3404742196
 C        -0.8122985734       -1.2963277695       -7.5328244096
 O        -1.8857763065       -3.1340469924       -5.5598681830
 O         0.4705251023       -4.7240528986       -8.3553369193
 C         1.9080246284       -3.3576038610      -10.3339888756
 C         3.3146677412       -2.7292063189      -10.2829369099
 C         3.9965160734       -2.0882086952      -11.6726361001
 C         4.2628651802       -0.5781038464      -11.4658541883
 C         5.4634743837       -0.2382045827      -10.4015664967
 O         3.9215447482       -2.4950312509       -9.2341143004
 O         3.9278471805        0.3857247222      -12.1024245648
 C         5.3575402897       -2.7835279294      -11.9762890588
 C         3.0007591461       -2.1364498061      -12.9174206844
 H        -0.5478376860       10.5398819713        2.0947560000
 H        -0.8291732015        9.5963837056        3.6812442877
 H         0.7140510702        9.9065410792        3.0622977664
 H        -2.0307028536        6.7091727369       -0.9029053868
 H        -1.3754910242        5.0692160600       -0.7954017235
 H        -1.4558426702        9.6605764133        0.2215355947
 H        -1.5978991425        8.2447416115       -0.6545433335
 H        -0.1953431362        9.2399839389       -1.0801869674
 H         1.8192383160        9.2898896314        0.4006727152
 H         1.8822174558        7.9420017305        1.5703114920
 H         1.8484805823        7.8564283783       -0.2132325364
 H        -2.1309904934        5.8897853837        1.9739161409
 H        -3.4937917681        6.2060781528        0.8844242946
 H        -2.9871135760        4.2882048215        5.0717082413
 H        -4.0267880179        2.8288720267        5.1270198932
 H        -5.3477684906        5.2969726817        2.4482852737
 H        -4.1065319006        5.7323491485        3.3311039620
 H        -5.0219616075        4.3224745750        3.8361525739
 H        -5.6038571511        2.9707725645        1.3280592184
 H        -4.2797584520        2.1734210759        0.5625935509
 H        -4.7594507965        1.6860434326        2.1975517147
 H        -1.4187104072        3.5137609725        6.1200818128
 H        -1.1348646487        2.1353948425        5.2778296729
 H         0.1470857217        0.0707929438        9.5402171197
 H        -0.6615867778       -0.4120744189        8.0698709823
 H        -1.4497850576        4.0399780592        8.3355947863
 H        -2.0692419987        3.9295991682        9.7790439082
 H        -3.1306509756        4.3434648349        8.2999043714
 H        -4.0104349125        1.9873991006       10.0758951113
 H        -4.7128096535        1.8701044269        8.3653240184
 H        -3.9348547323        0.5170943967        9.1750100578
 H         0.6443140879        2.1356622506        7.1940080439
 H         1.7317535928        1.0102301845        8.0261256902
 H         1.4465191582       -2.5425457589        3.3917146907
 H        -0.0503622362       -1.9789291032        4.4539107588
 H         1.9593182067        2.2503172210        4.8973140774
 H         3.5834977541        1.3493760253        4.8139924799
 H         2.7843502768        1.7540824435        6.2579256458
 H         2.1157924634       -1.9324966369        5.8565450811
 H         3.5085646887       -1.4353253628        4.8512611945
 H         3.4568755464       -0.9285103847        6.6751876916
 H        -0.2819987687       -2.4141500873        1.6800028720
 H        -0.7418114403       -0.7023231121        2.1343374256
 H        -1.0788777989       -5.9571559554        0.8545035317
 H        -2.6371504288       -6.0731419334        0.1001541052
 H         0.3080596265       -4.1873715407        2.8518735397
 H        -0.5982548447       -5.7493540791        3.5683933503
 H        -0.5303964109       -4.1952525333        4.3428843484
 H        -3.8579504079       -3.9395955108        3.7775438647
 H        -3.3954796754       -5.2782907786        2.6694082298
 H        -2.5971824423       -5.1807290091        4.2649442569
 H        -1.1434561550       -5.8216988801       -1.8005372161
 H        -1.8720206901       -4.1492035418       -1.2838223103
 H         0.1682341964       -5.8523060570       -4.2659985859
 H        -0.9352582431       -4.5614168950       -3.8472285344
 H         2.7030316744       -2.8779260368       -1.1599573562
 H         3.4040352626       -4.5030411042       -1.7579615910
 H         2.5756325529       -4.2373164087       -0.1983407936
 H         0.8478946642       -6.6350556002       -2.3910908721
 H         2.4943301591       -6.0984391002       -2.5223158874
 H         2.0666157090       -6.4181741527       -0.9234833653
 H         0.7418187541       -4.7830761460       -6.3329290484
 H         0.9880506204       -3.3037705923       -5.4298986598
 H         0.3981981070       -1.8565566415       -9.8044936521
 H         1.6532668035       -2.1114867307       -8.6577316830
 H        -2.2553165553       -2.8741741308       -9.4189680510
 H        -3.0878050931       -2.6403009353       -7.7933666383
 H        -2.2305347739       -4.2277258131       -8.2836399090
 H         0.2014834595       -0.9008490619       -7.5186190359
 H        -1.3225270832       -0.7966031967       -8.3316044352
 H        -1.3639439223       -0.9396871161       -6.6135464379
 H         2.1432780531       -4.4291438833       -9.9445916058
 H         1.4582923820       -3.4099550545      -11.2281009412
 H         5.3645687542       -1.0030170749       -9.6589511559
 H         6.4785150429       -0.1681975969      -10.8714372925
 H         5.3631373553        0.7646404713      -10.2287935568
 H         5.9990378291       -2.2784245750      -12.6863438134
 H         5.1881704385       -3.7381843983      -12.2661832434
 H         5.9540178258       -2.8410433858      -11.0631091014
 H         3.4275891182       -1.5130936890      -13.6671161166
 H         2.8882420336       -3.1260131809      -13.3255728473
 H         2.0557568514       -1.6508058939      -12.6491785520
 Na       -1.9998760935        0.1814467806        4.4324929319
