155

 C         1.9497917383        8.5117596807        3.0707132022
 C         0.7457638227        7.5637758305        2.8579637519
 C         1.0881619390        6.1570468641        2.3602116587
 C        -0.1408788564        5.2954403274        2.1110249889
 C        -1.3119011071        5.6032358692        1.1806194800
 C         2.0970834308        6.1739981884        1.0837120269
 C         1.8993711445        5.4994066659        3.4621540332
 O        -0.3773147109        7.9307036957        3.1985807983
 O        -0.3318955108        4.3454284480        2.8018799025
 C        -2.6389154537        5.2092087497        1.7389235728
 C        -3.0150291628        3.8866998312        1.0764598732
 C        -4.0416722381        2.8481529839        1.8233791067
 C        -3.5294045732        2.4039459299        3.2462721560
 C        -3.7301434642        3.2402214841        4.6371602143
 O        -2.8381759407        3.6058818286       -0.0835460330
 O        -2.9821944997        1.3606814204        3.3204419786
 C        -5.3558012430        3.7572975734        1.8676571595
 C        -4.2139453401        1.6730203106        0.9749833950
 C        -2.4374682419        4.0806304550        5.1210082616
 C        -1.1541595313        3.3916744635        5.7562164222
 C        -0.4331767590        4.1802357122        6.9934628411
 C         0.9384310947        3.5307101829        7.2189778532
 C         0.9307930546        2.1412952380        8.0144174785
 C        -0.1882034186        5.7360676483        6.7621736574
 C        -1.4469381630        4.0822616120        8.2293799972
 O        -0.8083495416        2.2738949394        5.3600347509
 O         1.9197282265        4.0691244208        6.7514175519
 C         1.7884070393        0.9319972168        7.4815096815
 C         1.0058026036        0.3149404322        6.2974217329
 C         1.8446558310        0.2267430512        4.9034298898
 C         0.9812474450       -0.3956127556        3.7029772929
 C         1.3757883143       -1.7345723074        3.1201807844
 O        -0.0419214545       -0.2007595893        6.5808545996
 O         0.0481937350        0.3273076863        3.3194075737
 C         2.3336983692        1.7899521853        4.4354495655
 C         3.1490487539       -0.5609466416        5.1659743970
 C         0.4258710948       -2.4229803879        2.0429896004
 C        -1.0372399442       -2.6685401530        2.5952318498
 C        -1.7287738392       -4.0263376378        2.2529960136
 C        -1.4116699995       -4.4383433245        0.7226322788
 C        -1.7216556140       -5.8308239177        0.2761980135
 C        -0.6974466191       -5.0929742318        3.0298554636
 C        -3.2393145532       -4.1104457713        2.8103693809
 O        -1.5987081532       -1.9183790866        3.4007285295
 O        -0.7750004456       -3.6861121055        0.0051910608
 C        -1.2295576241       -6.0570333746       -1.2367802205
 C         0.3181409553       -5.9857241833       -1.3540561141
 C         0.8790557150       -5.7411873889       -2.7592785347
 C         0.7616039242       -4.0739005756       -2.8163498281
 C        -0.4229660021       -3.4943242685       -3.5037645149
 O         0.9139576722       -6.0352839567       -0.3470047675
 O         1.5538779007       -3.3455495397       -2.3114191281
 C         2.4437500666       -6.1203757160       -2.8084727387
 C         0.1187055886       -6.3841292651       -3.9484572538
 C        -0.0637058587       -2.8726690837       -4.8337040323
 C        -1.3835532839       -3.0173495095       -5.7320162003
 C        -1.5568478694       -1.9790530895       -6.9151766394
 C        -0.9759373964       -2.8184097660       -8.1407399965
 C         0.5849719898       -2.8563099600       -8.2715531614
 C        -3.1347497425       -1.8416056464       -7.2004272440
 C        -1.0808860116       -0.6101374862       -6.4785326550
 O        -2.2025936441       -3.8450935704       -5.4635404173
 O        -1.6766531939       -3.2647265910       -9.0333000421
 C         0.8987778936       -3.6510311812       -9.5612918608
 C         1.9672087645       -2.9946682545      -10.4017118178
 C         1.7042377711       -1.6045409382      -11.1560555408
 C         2.0161902526       -0.5790106509      -10.0659936404
 C         3.4950986958       -0.5786193596       -9.5167071826
 O         3.0235133064       -3.4544855072      -10.5417515011
 O         1.1761154079        0.2353317353       -9.8017337437
 C         2.7159512455       -1.5290889460      -12.4442444724
 C         0.2830124690       -1.4815029722      -11.7033022330
 H         2.7270135541        8.3217130988        2.4577190185
 H         1.6840364804        9.5714011575        3.1623307390
 H         2.4846364475        8.2757384940        3.9874790968
 H        -1.4087148269        6.6219176115        0.8152767788
 H        -1.2770283295        4.9498559973        0.2066893633
 H         2.6777148147        5.3270946662        1.0151982347
 H         2.6308652069        7.1199664106        1.1608014615
 H         1.5523923653        6.1123056938        0.1157597680
 H         2.8063783586        5.9352337338        3.8379146905
 H         1.2099737876        5.4182488045        4.2181181509
 H         2.4325577865        4.6145724531        3.1707354667
 H        -2.6922485444        5.0150994168        2.7505225321
 H        -3.4419167121        5.9397092337        1.5023285987
 H        -4.5445092455        3.8935358026        4.4405474025
 H        -3.9330939281        2.6346665290        5.4752832721
 H        -5.5477268176        4.0996368026        0.9199362180
 H        -5.3857016231        4.5081975802        2.6984478863
 H        -6.0494159940        3.0088548793        1.9031344240
 H        -4.3521735548        1.9394454635       -0.0590944675
 H        -3.4170164626        0.8921583060        1.0855594516
 H        -5.1414154127        1.1382494247        1.2339180089
 H        -2.9375505241        4.8347531848        5.5881305208
 H        -1.7975197378        4.5950657278        4.3021715611
 H         1.2657115674        2.3915618653        8.9919753778
 H        -0.1306151296        1.8753423444        7.9790520100
 H         0.6034049571        6.1371243677        6.0187533753
 H         0.3160799363        6.0784850717        7.6786859475
 H        -1.0391785042        6.3112814284        6.6056410259
 H        -1.0222928808        4.4354664967        9.1433529898
 H        -2.3236357807        4.5972648485        7.8988301565
 H        -1.7379785957        3.0811405486        8.4819183617
 H         2.8033862296        1.4225569967        7.2399589668
 H         2.0032802204        0.1695119527        8.3174517192
 H         2.5105631378       -1.5254630826        2.7498278833
 H         1.5620747722       -2.4468499584        3.9883397258
 H         1.6483726812        2.4778820591        3.8596694949
 H         3.2313928418        1.6203122266        3.9489152674
 H         2.7448764140        2.3674593911        5.2608589350
 H         2.9869361969       -1.3504626379        5.7894273283
 H         3.5777078574       -0.5352071049        4.2033069253
 H         3.8316574788        0.0758971158        5.7573894255
 H         0.9946557344       -3.2606800416        1.6852754186
 H         0.2840288314       -1.8351515790        1.0808195782
 H        -1.1288968994       -6.4861506653        0.8687604887
 H        -2.7637285634       -6.1177693446        0.3255972452
 H        -0.6131233099       -4.6958869161        4.0306866238
 H         0.1973720305       -5.1027096879        2.4885936548
 H        -0.9835273325       -6.1533905302        3.1296808025
 H        -3.4171479112       -5.0255475875        3.3030243499
 H        -3.1070692654       -3.4857167669        3.7042285066
 H        -3.9459084793       -3.7421000733        2.0964472769
 H        -1.4464504725       -7.0370587768       -1.6220702589
 H        -1.7232429707       -5.2668503204       -1.8096005876
 H        -1.1336557519       -4.2696797050       -3.8011390159
 H        -0.8951053761       -2.6776022806       -2.9408622865
 H         3.0326444528       -5.4744983543       -2.0961965328
 H         2.6846038165       -5.9545619479       -3.8213161122
 H         2.6658200933       -7.2203773568       -2.6265177615
 H        -0.9498293915       -6.3400724578       -3.8931725622
 H         0.4126195251       -5.9023889317       -4.8697106143
 H         0.1898672627       -7.4641113354       -4.0319251595
 H         0.6536879944       -3.4751156564       -5.3419963482
 H         0.4524045779       -2.0045845644       -4.8243599359
 H         0.8997390407       -1.8269397078       -8.1806677194
 H         1.1417919131       -3.2822849627       -7.4193148697
 H        -3.2614146316       -1.2508011216       -8.1682550304
 H        -3.6964905026       -1.4231769452       -6.3492719257
 H        -3.5387436002       -2.8331941420       -7.4073184716
 H         0.0708643820       -0.6624525375       -6.4643966046
 H        -1.3056258224        0.2505635833       -7.1767237480
 H        -1.3983102785       -0.4536731191       -5.4050616183
 H         1.2772075266       -4.5700384729       -9.2163236357
 H         0.0840277802       -3.8557914298      -10.3514040877
 H         3.4779338161        0.2748019254       -8.7784725663
 H         3.7801367772       -1.4418369816       -8.9693871805
 H         4.2218088065       -0.4680903471      -10.2453662828
 H         3.1592895070       -0.5222973044      -12.3806048409
 H         2.3328713492       -1.7801786418      -13.3359784675
 H         3.5215835574       -2.2191717515      -12.2022216761
 H         0.3375583540       -0.9026049422      -12.6934214568
 H        -0.4021886620       -2.3415776846      -11.8876205554
 H        -0.3317172048       -0.8664481170      -11.0391118855
 Na       -1.6098067744        0.1976823014        4.7532537613
