155

 C         3.2813068638        4.5349183530       -5.6362505339
 C         2.1422426097        4.5049619569       -4.5546336364
 C         1.4620446699        5.8730169202       -4.0424076822
 C         0.6604150855        5.8828552717       -2.6656323578
 C         0.4666087218        4.4558868920       -1.9529694259
 C         2.5518022119        7.0595303436       -3.6628775433
 C         0.5293108076        6.4251532328       -5.1589051790
 O         1.8218639896        3.4158962843       -4.2009173032
 O         0.4594327811        6.8868276236       -2.0423260390
 C         0.1649645036        4.6708980502       -0.4051646280
 C        -0.1549863942        3.1085394073        0.1727503333
 C        -0.8823843653        3.0520643940        1.6276509732
 C         0.2265657387        2.1566609088        2.5381856758
 C         0.2365674072        2.5895283335        4.1248081285
 O         0.0205201691        2.0723246237       -0.4570686004
 O         1.0559397158        1.3738463062        1.9769680709
 C        -1.2483121620        4.3203684398        2.3285792490
 C        -2.1449549173        2.2650301880        1.3309631970
 C         1.5268815805        3.3049445893        4.3956682339
 C         2.4550902561        2.5460167692        5.3289611849
 C         3.6595315328        3.3082331401        6.1752043710
 C         4.6540293163        2.2052024755        6.7994312665
 C         4.1580000397        0.9382625402        7.5233384838
 C         4.3220819058        4.2071550741        5.1801542842
 C         3.0714578527        4.0292901276        7.3979167915
 O         2.4789164354        1.3458191036        5.2749488605
 O         5.8488982108        2.3960445444        6.5763897958
 C         4.9818521001       -0.4085054763        7.0060505731
 C         4.0507845737       -1.1736418588        6.1337604113
 C         4.6128187488       -2.1507018440        4.9368551973
 C         3.3056489997       -2.6773824947        4.2298420455
 C         2.5940766881       -4.0015180508        4.7327333038
 O         2.8421444124       -1.0288920875        6.1199066586
 O         2.7951260010       -2.0465146435        3.3338848152
 C         5.4598585641       -1.5188689453        3.7919221123
 C         5.4837524900       -3.4125723882        5.4811831099
 C         1.4311985576       -4.4272494121        3.8076252749
 C         0.1813406239       -3.4971569234        3.8796374088
 C        -1.1512124438       -4.2991283075        3.6114090113
 C        -1.5065428710       -3.6706228914        2.0925921012
 C        -1.7515402799       -4.5975998182        0.8376030608
 C        -1.2524449317       -5.8404581967        3.8252041511
 C        -2.2163804154       -3.7365045062        4.6718388767
 O         0.2646793582       -2.3359396329        4.1346075656
 O        -1.5731445489       -2.5256690149        2.0289527480
 C        -0.3020575909       -4.7375034925        0.0324887791
 C        -0.4157270182       -5.7082842693       -1.2599438996
 C        -1.3963386120       -5.1438295707       -2.5264715265
 C        -1.9619113487       -3.6417576078       -2.4734645422
 C        -3.2318349362       -3.4165640943       -3.3564384075
 O         0.3745148912       -6.6455934279       -1.4116427181
 O        -1.6295164457       -2.8000811188       -1.7254179778
 C        -0.2425023848       -4.9766120604       -3.7399363777
 C        -2.4571351366       -6.2859159615       -2.6684471344
 C        -3.5049195821       -1.9166907745       -3.4797395382
 C        -2.3732400578       -1.1468949919       -3.9655986778
 C        -2.4190636158        0.3675832678       -3.5419895738
 C        -3.8521442208        0.8344648628       -3.9436504338
 C        -4.3419127341        0.7932462293       -5.4841657768
 C        -2.1601731731        0.4434173213       -2.0724278175
 C        -1.4043093217        1.1166438081       -4.3834898829
 O        -1.6470865977       -1.6805753572       -4.7155682130
 O        -4.5817742390        1.4030761052       -3.1563175525
 C        -5.7726971996        1.3636148313       -5.7131796516
 C        -6.7329890876        0.3676921051       -6.4402820628
 C        -6.4915221403        0.0183198259       -7.9778050714
 C        -5.5731057785       -1.3872195183       -8.0395369217
 C        -4.8645588986       -1.4599260643       -9.4506588903
 O        -7.7184720934        0.0409464378       -5.8752448644
 O        -5.3493298302       -2.2088336131       -7.1596135253
 C        -7.8647558546       -0.2806286434       -8.7244266001
 C        -5.8211186901        1.2278365205       -8.5556914182
 H         4.2383114199        4.6941393127       -5.1480657962
 H         3.5110112743        3.5782416269       -6.0137756587
 H         3.2041026347        5.3575070353       -6.2821771662
 H        -0.3179363972        3.7733235339       -2.1478390040
 H         1.4008621348        4.0335492921       -2.0640593013
 H         3.5305233496        6.6889922555       -3.2596697966
 H         2.1008116836        7.7761288003       -3.0780075112
 H         2.9661225317        7.3436156738       -4.5852279924
 H        -0.2567142432        6.9755033032       -4.7265310279
 H         1.0865671675        7.0617911589       -5.8788259239
 H        -0.0221055389        5.7197450104       -5.7903272271
 H         1.0243854823        4.7729195622        0.2463084066
 H        -0.6411934234        5.2656376085       -0.2040338890
 H        -0.6690512020        3.1360502242        4.4513492799
 H         0.1419405121        1.6785932096        4.7784210356
 H        -1.9147193825        4.2471399506        3.2430774284
 H        -1.7586957863        4.9299739638        1.5529821552
 H        -0.4128365038        4.8407860575        2.8553345155
 H        -2.8678265675        2.6031565677        0.6523626494
 H        -2.0313393572        1.2134563810        1.1431830289
 H        -2.7379522977        2.0872890061        2.2439460030
 H         1.1655181146        4.2909543946        4.9373577882
 H         2.0140148608        3.5063397400        3.5380033189
 H         4.5796696527        1.0762449629        8.5587044895
 H         3.0919213095        0.7008289636        7.4116173579
 H         5.4621114355        4.2974875442        5.3095027538
 H         4.0176306714        5.2153467436        5.2008852670
 H         4.2551354972        3.8337109347        4.1806164919
 H         3.9022632992        4.1925613811        8.0146205915
 H         2.5760213569        4.9499136981        7.1018377031
 H         2.3889982703        3.3669376338        7.9456616519
 H         5.9391164311       -0.0702158612        6.5734799048
 H         5.2504519143       -0.9627076438        7.9262281063
 H         3.2405040153       -4.6988327179        4.9433946701
 H         2.1722462493       -3.4920134496        5.6876293991
 H         5.9731466913       -2.3448270823        3.3531155301
 H         6.1514981316       -0.7707654188        4.2700277670
 H         4.9289807630       -0.8368896637        3.0362665305
 H         4.9703517580       -4.0153778201        6.1402920449
 H         5.9444600775       -3.9748029397        4.6898384177
 H         6.3830193531       -2.8994638544        5.8624060004
 H         1.2002444206       -5.4138387793        4.1134954008
 H         1.6898518641       -4.4956611123        2.7382254002
 H        -2.4684449910       -5.4902486133        1.0528949116
 H        -2.2817760009       -3.9798025527        0.1337445509
 H        -0.3068229178       -6.4286921199        3.5608564241
 H        -2.0790791540       -6.1645998634        3.2063509228
 H        -1.4367771895       -6.1565760592        4.8810767110
 H        -1.7651290769       -3.0944052298        5.4249259001
 H        -2.8734627778       -2.9881231846        4.1728994013
 H        -2.7105728111       -4.6093738252        4.9605414486
 H         0.1417890995       -3.8614364649       -0.5160044269
 H         0.5449612896       -5.0607379396        0.6500445812
 H        -3.0420907257       -3.7483897301       -4.3682205693
 H        -4.1979988806       -4.0134054797       -3.3109316812
 H        -0.0112751340       -3.9091089404       -3.8933095885
 H        -0.6659269373       -5.4396186115       -4.6012427083
 H         0.5311244794       -5.5841611712       -3.3797313178
 H        -2.9071447298       -6.3892390415       -1.6177757772
 H        -3.1744324238       -5.9672009832       -3.4929117339
 H        -1.9301238355       -7.1709224542       -3.0056269716
 H        -3.9931166363       -1.4295879638       -2.6314969990
 H        -4.3245510608       -1.8463881860       -4.2069051881
 H        -3.6093748122        1.4632813731       -6.0843699888
 H        -4.2463100441       -0.2406394042       -5.8173049076
 H        -3.0528840941        0.4538013139       -1.5341664543
 H        -1.7069211025        1.4086781259       -1.8019410238
 H        -1.4083510583       -0.2424981013       -1.6413898998
 H        -1.8631865197        1.9154269997       -4.9771780534
 H        -0.5681066734        1.5259881238       -3.8508469704
 H        -0.9972047342        0.4785978897       -5.1142513209
 H        -6.0864708101        1.6648407394       -4.7240606867
 H        -5.5698465220        2.4053211348       -6.1903790222
 H        -5.6586525739       -1.3769585908      -10.0943125070
 H        -4.1341539378       -0.6006637116       -9.5241188633
 H        -4.2723921478       -2.3638983789       -9.6938370066
 H        -8.3722370655        0.7437849077       -8.7366726136
 H        -8.6082631553       -0.8546734333       -8.2592125262
 H        -7.7104016887       -0.5954344975       -9.7837555336
 H        -5.4746219705        1.2663828380       -9.5115938997
 H        -6.4037024539        2.1206220961       -8.5289279883
 H        -4.8909402742        1.4470451906       -8.0930308188
 Na        1.5818707335       -0.3840180136        3.8621495188
