155

 C         2.9103183248        3.7641027814       -4.6215705968
 C         1.4806917760        4.0792187523       -4.3545507593
 C         1.1229353462        5.4105663261       -3.6505137584
 C         1.7531801574        4.8637288309       -2.2518807353
 C         0.9304663487        3.7478002740       -1.4839422495
 C         1.7393505925        6.7603100321       -4.0434790518
 C        -0.3887236342        5.5973529592       -3.5836932960
 O         0.6171086921        3.2989891614       -4.7755429285
 O         2.8969703531        5.2036457948       -1.9656953761
 C         0.7880161049        3.6394341995        0.0729686369
 C         0.3571338714        2.3494245200        0.6359505107
 C        -0.4112308645        2.3981872072        2.0483323030
 C         0.3513275034        1.3429275071        2.8746196311
 C         0.6655115498        1.5270771913        4.4738336494
 O         0.7617478362        1.2614734446        0.2229901516
 O         0.6308350293        0.2938156513        2.4348237332
 C        -0.4600729422        3.8097031301        2.7820959218
 C        -1.8193347872        2.0471818488        1.6644078448
 C         1.7354697932        2.4918655556        5.0512124402
 C         3.0938505686        2.3075908577        4.3195306327
 C         4.2538523787        3.0749142819        4.9359525908
 C         5.0458691342        1.9468681252        5.6494236196
 C         4.5540448394        1.4917523587        7.0915116354
 C         5.2054838552        3.5700259943        3.8116388129
 C         3.8435512024        4.2206623756        5.8568336999
 O         3.2440687822        1.5751135869        3.3345527085
 O         5.7846828670        1.2302871285        5.0301368181
 C         4.8648791502       -0.0538374198        7.2905475717
 C         4.2632384525       -0.8012078254        5.9489717041
 C         4.9380632929       -2.0546130303        5.2952282199
 C         3.9657030620       -2.7182798497        4.2919792056
 C         2.9775936240       -3.6114857848        4.9765080100
 O         3.2850063236       -0.3420542863        5.4080152779
 O         3.9640105893       -2.4173436553        3.1221924905
 C         6.2568560237       -1.6219216088        4.4795066359
 C         5.3855273614       -2.9612032147        6.4491728458
 C         1.6628894159       -4.2004559961        4.2747997315
 C         0.5891561488       -3.1730378436        4.0700389000
 C        -0.7036586373       -3.5207401714        3.5093029456
 C        -0.9850826546       -2.8928985126        1.9388741659
 C        -1.6061738614       -3.7690348691        0.7724103160
 C        -0.9493467144       -5.1087684920        3.4504062763
 C        -1.7779033533       -2.8367029789        4.3344577740
 O         0.8574083604       -2.1757574558        4.7757126936
 O        -0.7774704956       -1.7444070730        1.6838853162
 C        -0.4129259433       -4.3181177390        0.0085712149
 C        -0.8892320624       -5.4133819071       -0.8606731755
 C        -1.7756159772       -5.0269513639       -2.0419867847
 C        -2.0692893648       -3.4401518007       -2.3411455970
 C        -3.3256176714       -2.9681177410       -2.9973284379
 O        -0.5998244779       -6.5373797312       -0.6562976636
 O        -1.0618461730       -2.6503615132       -2.3782982217
 C        -0.7719747739       -5.1036727871       -3.3649190062
 C        -3.1469025332       -5.7848550647       -2.3304934507
 C        -3.2830674504       -1.4712863491       -3.1427089574
 C        -2.9243576779       -0.9486930269       -4.5099076922
 C        -2.4969371802        0.5686229764       -4.5730046945
 C        -3.7353189218        1.5112985573       -4.6663512274
 C        -4.8446208553        0.9731379553       -5.5093962228
 C        -1.5370832861        0.8312420586       -3.3797866588
 C        -1.6167087186        0.5735764055       -5.9254586045
 O        -2.9593031829       -1.6761888272       -5.4965943225
 O        -3.8286025801        2.4656227228       -3.9120030762
 C        -6.1576708959        1.8602816842       -5.7624387748
 C        -7.4944968546        1.1536276267       -5.9407257390
 C        -7.8782610907        0.5830023330       -7.2876219888
 C        -7.8004710851       -1.0026895892       -7.2710029635
 C        -6.3860276942       -1.7760162329       -7.2412238242
 O        -8.1441954439        0.8713828054       -4.9540736236
 O        -8.7664592202       -1.7007430964       -7.5115851595
 C        -9.3607102648        0.9689138817       -7.4766593467
 C        -6.9966140960        0.9359682362       -8.4750475581
 H         3.5516949800        3.2082338186       -3.9072855338
 H         2.9075485223        3.4256406551       -5.6773160408
 H         3.5474214949        4.6757736133       -4.8173868220
 H        -0.0959664824        3.6960785451       -1.8900742987
 H         1.4409059239        2.8177051858       -1.7932475327
 H         2.7738533244        6.6479054739       -4.1853891524
 H         1.4747290543        7.4864516137       -3.1815806865
 H         1.0915470262        7.1593282102       -4.8887953772
 H        -0.6625515690        6.4898484914       -2.9881667075
 H        -0.8764438443        5.6432154377       -4.5768050599
 H        -0.9143289930        4.7871262444       -3.1042238644
 H         1.6505932297        3.9780798817        0.8015637613
 H         0.0169726210        4.4092834111        0.3018203983
 H        -0.2133922374        1.9230427610        4.9571870336
 H         0.9384260701        0.5870309388        4.8687195641
 H        -0.6510461947        3.5533266012        3.7682803838
 H        -1.1385745350        4.5466442153        2.2553049119
 H         0.6064204672        4.0725631602        2.7313219722
 H        -2.3524821475        2.7637860506        0.9647913591
 H        -1.9057163540        1.1340200186        1.0540156761
 H        -2.5430119531        1.9005663455        2.4379745095
 H         1.9582001238        2.1930052954        6.0106975923
 H         1.3980953627        3.6193079966        5.1585556934
 H         5.0205930140        2.1036880041        7.8885502006
 H         3.5460186362        1.7689856300        7.1927669596
 H         5.8621100611        2.8241556382        3.5084364724
 H         5.8244911275        4.4409948138        4.2087439187
 H         4.6247838084        4.1365014674        3.0088484488
 H         4.6231240400        4.4026586484        6.6389495382
 H         3.8254609854        5.0550907427        5.1135314916
 H         2.8824496208        4.3582219048        6.3204628522
 H         5.9126964790       -0.3595990009        7.2319930464
 H         4.5226192925       -0.2447303547        8.3551615980
 H         3.6223717632       -4.4722665708        5.5071654861
 H         2.6970635344       -3.1102792130        5.8290402099
 H         6.9111461223       -2.5429857239        4.2882245622
 H         6.7671359490       -0.8832670422        5.0842831665
 H         6.0112655395       -1.3306266862        3.5296193075
 H         4.5151808386       -3.1539622639        7.1921766915
 H         5.7946210832       -3.9721643618        6.1879240155
 H         6.2872354546       -2.5610961130        6.9106293424
 H         1.2561268066       -4.8336876770        5.0412762271
 H         1.7371497862       -4.9215488424        3.4151489457
 H        -2.1924465874       -4.6490405106        1.1522487584
 H        -2.0956652734       -3.1447133771       -0.0209862911
 H        -0.5593092953       -5.6050004030        2.6017693810
 H        -2.0227195626       -5.3901549481        3.3567582012
 H        -0.5436538254       -5.6340324526        4.3666503412
 H        -2.6919834307       -2.6265496742        3.8021345450
 H        -2.1057259964       -3.4783594852        5.0975534734
 H        -1.3494846304       -1.8602740499        4.8041048410
 H        -0.0257317153       -3.5367551184       -0.6514673933
 H         0.3230099032       -4.8590184245        0.6111099574
 H        -3.2545328017       -3.3267590866       -4.0153566529
 H        -4.1457216725       -3.2808759594       -2.3507628155
 H         0.1382337740       -4.6923081451       -3.0132526197
 H        -1.2475077118       -4.6038825208       -4.1944375915
 H        -0.5154022206       -6.2055910801       -3.4789690396
 H        -3.9402097162       -5.3105148750       -1.8025295276
 H        -3.3534535979       -5.7808821660       -3.3509405626
 H        -3.0487562012       -6.8549224242       -1.9766575494
 H        -2.7502919100       -0.9504826899       -2.3178654027
 H        -4.3977011363       -1.1455390591       -3.2502626904
 H        -4.6207249658        0.5399905240       -6.4799799824
 H        -5.0738634375        0.1090014925       -4.8779271440
 H        -1.9773811057        0.8629919906       -2.3486624039
 H        -1.0367820213        1.7976837191       -3.4197437735
 H        -0.7323966669        0.0905639677       -3.3968227196
 H        -0.6886712699        1.0402715750       -5.7144879649
 H        -1.4832089523       -0.4456162539       -6.2999874764
 H        -2.2356364319        1.0572250665       -6.7572488804
 H        -6.2017911275        2.4384387767       -4.8314944202
 H        -6.0090532302        2.4709479898       -6.5710323310
 H        -6.1073667528       -1.8207059773       -8.3496456264
 H        -5.6183209888       -1.4719861404       -6.5940292188
 H        -6.6761268937       -2.7823772835       -7.0647975285
 H       -10.0291603931        0.5029575773       -6.7786893223
 H        -9.6109650808        0.7309843637       -8.5617766922
 H        -9.5188181191        1.9976509567       -7.2856814382
 H        -7.0531248673        0.1512710157       -9.2995922693
 H        -7.4543254817        1.8143777462       -8.9928570119
 H        -5.9723837235        1.1603214238       -8.2725948761
 Na        2.3342380891       -0.5264089383        3.4182082894
