155

 C         2.6999850156        3.3519918041       -5.4096615835
 C         1.5124726075        4.3104321577       -4.9585333483
 C         1.5772927301        5.1900941317       -3.6437112769
 C         1.8100503502        4.3211192411       -2.4721266853
 C         0.6077423204        3.4981206128       -1.8234827822
 C         2.7548745999        6.2861584183       -3.6892949160
 C         0.2280759780        5.9919036255       -3.5661300224
 O         0.4994206879        4.2700704260       -5.6735991333
 O         2.8758568286        4.2960854667       -1.8996978810
 C         0.6439653239        3.4240534675       -0.2635450898
 C        -0.2908923239        2.3470317897        0.3923590166
 C        -0.3026347019        2.3179086866        2.1225424066
 C         1.0821215300        1.8645627618        2.6776349131
 C         1.9639413971        2.6460370542        3.7517484044
 O        -0.9204450073        1.5061322090       -0.1668079201
 O         1.5184065576        0.9174048474        2.0910575254
 C        -0.7192650381        3.7853659994        2.5966922646
 C        -1.2593673960        1.1958142264        2.6090330392
 C         3.2596315834        3.1338462664        3.0447942300
 C         4.4746497561        2.2959456944        3.6339093516
 C         5.6981217895        3.0408862098        4.1576384539
 C         6.8887423486        1.9719282681        4.5466528221
 C         6.5962977495        1.1088373591        5.7737036960
 C         6.3748605174        3.8771746060        2.9432070326
 C         5.2886478609        4.0895939139        5.3841644124
 O         4.2587707677        1.1138729761        3.7764313232
 O         7.9791888154        1.9570478513        4.0258897331
 C         6.5314182777       -0.3906313820        5.3191699129
 C         5.2946793070       -1.1181208165        5.7940132940
 C         5.1399062057       -2.5900594348        6.0964234911
 C         4.1798282418       -3.0030710955        4.7835373628
 C         3.5247654458       -4.3428101450        4.6343982168
 O         4.2490538589       -0.4767391617        5.9553579055
 O         3.9444559636       -2.0799111369        4.0100380224
 C         6.3534558085       -3.4919349438        6.1084566899
 C         4.3358080229       -2.7939338822        7.4181056608
 C         2.3620918086       -4.3901117988        3.6108424169
 C         1.0029320648       -3.4603098162        4.0283972013
 C        -0.3537517919       -4.1772843387        4.0829696362
 C        -1.2375834032       -3.3461739198        2.9521421211
 C        -1.9559515590       -4.2808029970        1.9189453502
 C        -0.0828296081       -5.6583157698        3.8555104828
 C        -1.1640441618       -4.1417384642        5.5220097157
 O         1.0828452578       -2.2667525672        4.3419192295
 O        -1.4714737882       -2.2102174263        3.1448488255
 C        -1.5635779041       -3.9446179341        0.4118872725
 C        -1.9160660083       -5.0708243841       -0.5299055512
 C        -2.0442992214       -4.5622094245       -2.1244502908
 C        -1.7504564551       -3.0797790995       -2.3908327649
 C        -2.7897418809       -1.9859983726       -2.2632657499
 O        -2.2196096212       -6.1841776578       -0.1257429382
 O        -0.6815714741       -2.7101230644       -2.9704413595
 C        -1.0267888677       -5.4250396116       -2.8075913674
 C        -3.4517258550       -4.8801404556       -2.7401919554
 C        -2.6403279363       -0.6987805659       -3.1596210588
 C        -3.0284458359       -1.0720075596       -4.6191992928
 C        -3.0100295886        0.1240245665       -5.6482044097
 C        -4.1724736178        1.0181503503       -5.5759536086
 C        -5.4949874506        0.3559315333       -5.6495520531
 C        -1.6765806566        0.8315595089       -5.5678435636
 C        -3.0515841417       -0.5241386237       -7.1208905341
 O        -3.5006753116       -2.1468690261       -4.9570729570
 O        -4.0761386570        2.2151314848       -5.5145067228
 C        -6.5954237494        1.2352006890       -6.2048613743
 C        -8.0793567483        0.8315502921       -5.5768090794
 C        -9.4459784712        1.3582769256       -6.2634956740
 C       -10.6423486455        0.4274456960       -5.9333402704
 C       -10.4120013242       -1.0150738839       -5.4006068531
 O        -8.0509995328        0.2888340789       -4.5098211912
 O       -11.7586317962        0.8042313272       -6.2313336163
 C        -9.6363142251        2.8071047427       -5.5738746764
 C        -9.4447744905        1.4709064241       -7.8087200912
 H         3.4207928622        4.0704220465       -5.8747958015
 H         3.1721081118        2.7752871813       -4.7138333773
 H         2.3464849823        2.7276828639       -6.1773368772
 H        -0.2043070618        4.0645188079       -2.2167026331
 H         0.6141720648        2.4878413456       -2.1276830721
 H         3.6754704542        5.8225460477       -3.5785359625
 H         2.8029321945        6.8009912761       -2.7119109974
 H         2.6193782927        7.0646736403       -4.3877277521
 H         0.0377570047        6.5216910124       -2.6049259285
 H         0.0137519464        6.7829569274       -4.2480937530
 H        -0.6218019349        5.3480904010       -3.8274588936
 H         1.6276928444        3.3167710321       -0.0623257894
 H         0.4508934810        4.4158584433        0.1184222275
 H         1.4543674875        3.4644495205        4.1722149585
 H         2.2648282415        1.9963349868        4.6441653515
 H        -0.7787608448        3.6124452293        3.6495366129
 H        -1.6380437308        4.0453459131        2.1266818603
 H         0.1269724095        4.3649925706        2.2106675176
 H        -1.9060658368        0.8967507539        1.8207289992
 H        -0.8570070168        0.2075062277        2.9252503494
 H        -1.9508666116        1.5330010371        3.4559768086
 H         3.6308157990        4.2653352656        3.1591571241
 H         3.3481044836        2.9343640763        1.9880357030
 H         7.3114740015        1.1624247435        6.5675603143
 H         5.5521869939        1.4124265919        6.0037673299
 H         6.9360443383        3.1763020389        2.3308348351
 H         6.9861629817        4.6326427961        3.4200859643
 H         5.5874335668        4.4115547836        2.4387296208
 H         5.5315510987        3.6517140258        6.3656700235
 H         5.8531743612        5.0303727041        5.3234511892
 H         4.1864671687        4.3633652223        5.3874670101
 H         6.4325248439       -0.4723840756        4.2189148003
 H         7.4461381737       -0.7913715279        5.7837140794
 H         4.2295483579       -5.0325589130        4.2787829941
 H         3.0632168758       -4.8059979667        5.6595848587
 H         6.1254270797       -4.4722193036        6.5630932952
 H         7.1622449682       -2.9592560924        6.7356103446
 H         6.6085773319       -3.7728613873        5.0616859898
 H         3.4210316165       -2.2434958561        7.3341794575
 H         3.9534598187       -3.8244603604        7.6721832784
 H         4.8715274375       -2.5404672544        8.3252763392
 H         2.1577877436       -5.4988852972        3.5547953923
 H         2.8727530956       -4.0859103572        2.7030014946
 H        -2.0028901396       -5.2977590097        2.1841339034
 H        -3.0086470944       -4.1160046871        2.0670065686
 H         0.2439164750       -5.9336039173        2.8044340142
 H        -0.9730026143       -6.2317454994        4.1498990639
 H         0.6077492381       -5.9782521980        4.5844383534
 H        -1.0139798655       -5.0768976004        6.1010652711
 H        -0.6497630225       -3.2545498777        6.0475417808
 H        -2.2427088794       -3.8714492182        5.4206495080
 H        -1.8624816607       -3.0201529218        0.0249483529
 H        -0.4812218763       -3.8457878545        0.7199427069
 H        -3.7853554697       -2.4429537781       -2.4339260690
 H        -2.9383465702       -1.5148970725       -1.3077978678
 H        -0.0121269928       -5.0474535141       -2.7161908362
 H        -1.4521199809       -5.4612206152       -3.8330346210
 H        -1.0512845497       -6.4834867890       -2.4797164023
 H        -4.2693321824       -4.3654613718       -2.3699316249
 H        -3.4558389136       -4.6833573275       -3.7720893626
 H        -3.7493870153       -5.9033713946       -2.6769659721
 H        -1.5611546879       -0.4414491500       -3.0821648533
 H        -3.0554351539        0.1631154160       -2.8170864805
 H        -5.3247652890       -0.6178450032       -6.0879314003
 H        -5.7585460810        0.0472100478       -4.5772277102
 H        -1.3613706075        1.2059234482       -4.5929246067
 H        -1.7203656326        1.8571089034       -6.1364981953
 H        -0.7963066759        0.2800167220       -5.9080163491
 H        -3.0366025566        0.4565643733       -7.6876847137
 H        -2.1085934961       -1.0224153070       -7.4865127328
 H        -3.9004642697       -1.2315542301       -7.1971378879
 H        -6.3515347426        2.1673849084       -5.9170366712
 H        -6.5665635408        1.1481093731       -7.3529753662
 H        -9.4368774136       -1.3836385532       -5.8228886641
 H       -10.1449860800       -1.1989514240       -4.3191804254
 H       -11.1327372194       -1.7165321521       -5.8883735388
 H        -8.6375852373        3.0605077709       -5.3576385139
 H       -10.1468938201        2.7498895884       -4.6488158592
 H       -10.1422222293        3.5436238009       -6.3089367306
 H       -10.4225975072        1.8128575761       -8.0983646506
 H        -8.6060943297        2.1614912141       -8.0408782133
 H        -9.1307632758        0.4325102266       -8.1279209994
 Na        2.5976135396       -0.4105669797        3.7398040384
