155

 C         4.4701201240        3.5446867396       -5.7363093121
 C         3.2031317289        3.3011724712       -4.8195977299
 C         3.0334601117        3.9575403653       -3.4317994043
 C         2.4124265533        2.9059404092       -2.4274647839
 C         0.8734703235        2.8495609830       -1.9782381877
 C         4.3180534518        4.4203589366       -2.8929301350
 C         2.0616450189        5.2123020364       -3.4541933496
 O         2.4137620739        2.4702947005       -5.1315515704
 O         3.2086751684        2.1271234909       -1.9297355282
 C         0.7466591223        2.5402655533       -0.4426957252
 C         0.9836613045        3.7101504869        0.5521488913
 C         0.7989058959        3.4033414385        2.0787842478
 C         2.0898387781        2.5260044801        2.4708585295
 C         3.4453216643        3.2051821868        2.3547586440
 O         1.2735984187        4.8224224991        0.3034455848
 O         2.0632620666        1.3157176924        2.7563499941
 C         0.7643993406        4.5611879164        2.9355534423
 C        -0.5395827664        2.4778648416        2.5122354957
 C         4.5396507222        2.5502047009        1.6745790140
 C         5.6325502246        2.0657745367        2.7047397952
 C         7.1421651240        1.9669835138        2.2084957584
 C         7.8611317136        0.7112251303        2.9562386235
 C         8.0143553636        0.9372105162        4.4627562910
 C         6.9665013369        1.5366828441        0.6899772797
 C         7.8600746490        3.3364325029        2.4128868190
 O         5.3238018880        1.7068199909        3.8584943937
 O         8.1973064915       -0.3219216747        2.4142207644
 C         7.7982211163       -0.3374238227        5.2964207568
 C         6.3840490069       -0.9791595125        5.1526421102
 C         6.2811717269       -2.4281837343        4.7322292531
 C         4.9353546037       -2.4364707953        3.9386535014
 C         3.8618650102       -3.6007265146        4.0682778299
 O         5.3541898650       -0.3753687412        5.1549182761
 O         4.8722067453       -1.6996854589        2.9649276692
 C         7.1911299323       -2.8087562199        3.6368511622
 C         6.2853064443       -3.3818576327        5.9886126290
 C         2.7302168730       -3.2553321940        2.9838972503
 C         1.4804557672       -2.6700479284        3.4732930257
 C         0.2098762431       -3.6731274460        3.6325009157
 C        -0.8304869754       -3.2759681287        2.6549258715
 C        -0.4589598166       -2.6259168152        1.3924998189
 C         0.5046786918       -5.1941603073        3.3257183488
 C        -0.1767489669       -3.6081010548        5.0448957767
 O         1.4567600432       -1.5397206708        3.9340603367
 O        -1.9768515525       -3.5164371806        2.8600382940
 C        -1.1610941193       -3.5154557195        0.1488938704
 C        -2.6991050773       -3.4123994599       -0.0978888670
 C        -3.0717307446       -4.4232183671       -1.2362107014
 C        -3.4409519247       -3.5512928684       -2.4189699407
 C        -4.4710025927       -2.2612000143       -2.2792067616
 O        -3.4126392420       -2.6736914574        0.4641829117
 O        -2.9662574617       -3.8904977041       -3.5479816123
 C        -1.9650396707       -5.4452937189       -1.7120723900
 C        -4.2534970674       -5.3050567189       -0.8012058721
 C        -4.9803126131       -1.8646794419       -3.5823805102
 C        -6.4323658064       -2.3716036604       -3.8513410954
 C        -7.1572973702       -2.0477538775       -5.2340990773
 C        -7.0142288370       -0.4944317289       -5.5598566065
 C        -8.2626738388        0.4186574939       -5.1373150171
 C        -6.5661987873       -3.0028366135       -6.2872427690
 C        -8.6289131270       -2.3542722460       -5.1092305083
 O        -7.0634368279       -2.8416217841       -2.9309904617
 O        -5.8829876693       -0.1245406780       -5.8992806266
 C        -8.0835869622        1.9411071836       -5.2616165492
 C        -9.4747261539        2.8018475125       -5.0892816822
 C       -10.3109403684        3.0704113827       -3.8983969123
 C       -10.4351937659        1.7522047888       -2.9982367260
 C       -11.5892734031        0.8451696753       -2.9547654390
 O        -9.9446208184        3.1119934917       -6.1680201010
 O        -9.4631315805        1.4254370616       -2.3405885836
 C        -9.5671100394        4.0912030734       -3.0867337634
 C       -11.6979536398        3.6044997592       -4.3241814347
 H         5.3713953841        3.1033329667       -5.5797110972
 H         4.1766004828        3.3235418338       -6.7836831617
 H         4.6830253543        4.5649318721       -5.8097350346
 H         0.4717215901        3.7680461963       -2.2244205437
 H         0.3793076777        2.0875471373       -2.5573975207
 H         4.9865138723        3.6031121774       -2.9824779506
 H         4.2551153301        4.7147871622       -1.8479066935
 H         4.7747880306        5.3526562127       -3.3381618533
 H         2.4570549843        5.7930129876       -2.6693829793
 H         2.0852077291        5.8658897072       -4.3530542540
 H         1.0383639345        4.8576467335       -3.3411756250
 H        -0.0643162365        1.9876584359       -0.0984374854
 H         1.4993568618        1.7556385485       -0.2945935296
 H         3.1252916340        4.1299169638        1.8787554811
 H         3.6517177423        3.4288433978        3.4277889428
 H         0.5163785489        4.3888171033        3.9698321908
 H         0.1018488797        5.4972911457        2.7035828999
 H         1.7952183106        5.1264597557        2.8384009506
 H        -0.5416283830        2.1042517240        3.5498198850
 H        -1.4774944565        2.9856105797        2.5014242383
 H        -0.6046948200        1.7554455321        1.7432891248
 H         5.0130929685        3.2623776883        1.0609684644
 H         4.3409312256        1.6484215636        1.0164865674
 H         9.1087838170        1.1845620304        4.6773817274
 H         7.4311643312        1.7797868159        4.9127595806
 H         6.1097224731        0.9230845658        0.6320335564
 H         7.7440568398        1.0119031264        0.1009338033
 H         6.5548628979        2.2769690172        0.0110953968
 H         8.8575513959        3.3756069408        1.8255884791
 H         7.2433876075        4.0986017948        1.9032429917
 H         8.0150023429        3.6279124474        3.4451538171
 H         8.4640748073       -1.1787773472        5.2829340226
 H         7.8892716640        0.0134716067        6.2525757614
 H         4.4472086590       -4.5476120804        3.9832629150
 H         3.4513356282       -3.7609579232        5.0706784558
 H         6.8136287775       -3.5503021073        2.9248634678
 H         8.2370659520       -3.0127940662        3.9584970526
 H         7.2687013775       -1.9111026944        2.9740496005
 H         5.3866896500       -3.0855108260        6.5298236269
 H         6.3777858525       -4.3804459798        5.6667880425
 H         7.2810361849       -3.2068799026        6.4970373991
 H         2.5856461020       -4.2839667311        2.6006260857
 H         3.1840808368       -2.6146646638        2.2715665045
 H        -0.7640713139       -1.5843672667        1.2880167623
 H         0.6119387616       -2.6869111708        1.2028122991
 H         1.3504573784       -5.3803504216        2.5856944905
 H        -0.3825572499       -5.6306341586        2.9094185297
 H         0.7116106397       -5.8806595684        4.1792400833
 H        -0.8484127813       -2.7493321877        5.3560272447
 H        -0.8789452571       -4.4708008294        5.2704482828
 H         0.6918976292       -3.5708656010        5.6791408286
 H        -0.5987266616       -3.3982958363       -0.7894900427
 H        -1.1436960055       -4.5535121480        0.4015690917
 H        -5.1937247195       -2.3937850055       -1.4061366684
 H        -3.7845046230       -1.4234210566       -2.1128203108
 H        -1.0210982916       -4.9599269996       -2.0523969528
 H        -2.3055513457       -6.0102565438       -2.5549265242
 H        -1.7480368068       -6.1062403259       -0.9005869452
 H        -4.1580517640       -6.1922950329       -1.3518585745
 H        -4.1124730370       -5.4586821866        0.2366804980
 H        -5.2861671322       -4.8467900373       -0.9258065273
 H        -4.3830832495       -2.3478836845       -4.3452334415
 H        -5.1153097147       -0.7088352629       -3.6196487018
 H        -9.1273168689        0.0870952963       -5.7097985511
 H        -8.3871785443        0.0869685613       -4.0565561568
 H        -5.6635433082       -2.6130097049       -6.7028658896
 H        -7.2320917984       -3.1614768965       -7.1891494022
 H        -6.4543951593       -4.0654180445       -5.9461664077
 H        -9.2559067843       -2.2335026978       -5.9976618925
 H        -8.9374887353       -3.3591649486       -4.9372067800
 H        -8.9736970962       -1.9134538112       -4.1170952881
 H        -7.1408784623        2.3835494212       -4.6918592036
 H        -7.8858730340        2.1517767101       -6.3388235146
 H       -11.5622243335        0.0788655210       -3.7502544175
 H       -11.7509829742        0.3422070452       -2.0115823833
 H       -12.5064634377        1.2983095122       -3.2530129686
 H       -10.1103201533        4.1968617387       -2.1155638739
 H        -9.5366883472        5.1201501385       -3.3959481645
 H        -8.5414756804        3.8436571440       -2.8244875097
 H       -12.2792237107        4.0465913452       -3.5283754883
 H       -11.4681211257        4.4045712161       -4.9815448169
 H       -12.3146450100        2.8257814887       -4.8820408143
 Na        3.5526390164       -0.0046219295        3.9227206672
