155

 C         2.7304735791        1.9503604829       -7.4363660530
 C         3.1511126988        1.9133709894       -5.8073689781
 C         4.0407601921        3.0662334241       -5.3288985327
 C         3.7974739108        2.8127429871       -3.6482089753
 C         2.5826740783        3.3468542328       -3.0276626125
 C         5.5199377445        2.7106345248       -5.4802919252
 C         3.6951076245        4.5132391019       -5.6992756847
 O         2.8792452512        0.8688746283       -5.1745049553
 O         4.5406002764        2.0145792471       -3.1723840135
 C         2.3033417604        2.9559091258       -1.5615799492
 C         2.8514365724        4.2152311038       -0.6469235360
 C         2.4688400457        4.1534962259        0.8960469216
 C         3.6285168080        3.1791712859        1.5224534480
 C         4.9655085533        3.7694002450        2.0526188308
 O         3.3841859829        5.2062736917       -1.0075737091
 O         3.4496361390        2.0382563252        1.1957606564
 C         2.4670566028        5.5409596600        1.4648647455
 C         1.0517175056        3.4457959498        1.0254092487
 C         6.1291140997        2.7460283616        2.1217414723
 C         6.1901295700        1.9500062874        3.4972256158
 C         7.4588772725        1.7056108608        4.3379947641
 C         8.4720930402        1.0431952977        3.1087773545
 C         8.8838546136       -0.4063145446        3.2001971232
 C         8.1546947796        3.1046583733        4.7282338295
 C         7.1523944745        0.9547250966        5.7211465139
 O         5.1740771326        1.4162184939        3.9827704730
 O         8.8078543700        1.7294000046        2.1295339264
 C         8.0527075199       -1.4607896139        2.3561163989
 C         6.6013882765       -1.8003353966        2.5353866555
 C         5.9300643622       -3.0054843895        1.5922728623
 C         4.7410361789       -2.2785988740        0.7683863479
 C         3.4574724015       -3.0805918275        0.2000754623
 O         5.8417378451       -1.2730030452        3.3050580117
 O         4.8932425008       -1.0938434076        0.6959533970
 C         6.8428953905       -3.6549058359        0.6321438738
 C         5.3726507385       -4.1221239391        2.3675780094
 C         2.0411769221       -2.4921256628        0.6729241506
 C         1.9343440879       -2.3973283407        2.2011736476
 C         0.5927415614       -3.1508548752        2.7228796883
 C        -0.6836145325       -2.6613978692        2.0421364704
 C        -1.9999571495       -3.4595328719        2.0139900576
 C         0.8131284107       -4.6132923939        2.8742064490
 C         0.3899990111       -2.3392193681        4.1597760729
 O         2.6128956919       -1.7576613859        2.9971012558
 O        -0.6775098731       -1.4748006058        1.6468084908
 C        -2.6731246244       -3.6503368870        0.6248684120
 C        -3.5838358261       -4.9456749862        0.3397811971
 C        -5.1252685597       -4.8715978865        0.5620397177
 C        -5.6083398595       -4.7056342415       -1.0234795907
 C        -5.2669177645       -3.3296072264       -1.9268247477
 O        -2.9070590501       -5.9726021647        0.0439160545
 O        -6.2170943160       -5.6286815768       -1.5760564513
 C        -5.8281774494       -6.0771291890        1.0874947617
 C        -5.4623171715       -3.5991338466        1.5063217322
 C        -6.2077582731       -3.2245440102       -3.0403764743
 C        -7.5768606323       -2.6738163058       -2.5110750895
 C        -8.8012928119       -2.3160612756       -3.4671021797
 C        -8.9596297558       -0.8018226450       -3.5124104135
 C        -9.1266508968        0.0848602215       -2.2412147525
 C        -8.6927008178       -2.8355777393       -4.9257339368
 C        -9.9068736460       -3.0582163965       -2.7356675354
 O        -7.6481922137       -2.4831344849       -1.3055296745
 O        -9.3385923831       -0.3235837047       -4.5521852506
 C        -8.9319531926        1.6084133701       -2.4164073452
 C        -9.9393253906        2.3504969474       -1.5422554126
 C       -10.2505116858        3.8899197769       -1.6623036257
 C        -9.5118045456        4.9507942226       -0.5589689704
 C        -9.6755687568        6.4902292523       -0.7817293999
 O       -10.5106931204        1.7140073560       -0.6278321994
 O        -8.7429831777        4.3093525661        0.0865850761
 C        -9.9959540638        4.3627062331       -3.1169433762
 C       -11.7308588993        4.0635174220       -1.4291561456
 H         1.7792639046        1.4244292095       -7.4075023699
 H         2.6641494208        3.0295445457       -7.7523764125
 H         3.3419109336        1.3674655630       -8.0849232000
 H         2.6286046003        4.4940459664       -2.9146420021
 H         1.6622919990        3.2297002494       -3.7545450573
 H         6.0382214635        2.1022528644       -4.6325604203
 H         5.9738353171        3.7102589858       -5.6801973564
 H         5.6341699164        2.1417838793       -6.3517922043
 H         2.6620702603        4.5217639585       -6.0651486697
 H         3.7313355735        5.1680314542       -4.7742548913
 H         4.3408558281        5.0241694283       -6.4287186945
 H         1.2707829747        2.8090579429       -1.2944659935
 H         2.6312970585        1.9982545915       -1.1829044528
 H         5.1707714108        4.6458154637        1.3777063667
 H         4.8002347120        4.1043650019        3.0712824271
 H         3.4543392148        5.9246746221        1.3576290622
 H         2.3930896837        5.4682049256        2.5381352528
 H         1.7667772363        6.3120889217        0.9963729450
 H         0.9755363440        3.1762322126        2.0559786254
 H         0.3890144300        4.1379252374        0.5947682289
 H         1.0552339568        2.4926439952        0.5319772361
 H         7.0945497991        3.3315947298        2.0451709415
 H         5.8662832262        1.9151445763        1.3765456857
 H         9.9333388864       -0.4522992964        2.8317102637
 H         8.9496289966       -0.8200027007        4.2207249879
 H         8.8112346495        3.5159653246        3.8709818703
 H         8.6839172466        2.8379335775        5.5687358213
 H         7.3970439210        3.8941062512        4.9894727030
 H         8.0856719316        0.4928230296        6.0199450541
 H         6.9368840679        1.6403849232        6.4981834901
 H         6.3990791776        0.1316040498        5.6465963447
 H         8.3724228404       -1.4631236108        1.2654616984
 H         8.5262511594       -2.3448168080        2.7433632221
 H         3.5163671987       -3.0526478339       -0.8971659299
 H         3.5210043451       -4.2080260576        0.3608422415
 H         7.0909459143       -2.9384773130       -0.1991225284
 H         6.2772473145       -4.5519235459        0.2206081423
 H         7.7565759244       -4.0711495128        1.0787558426
 H         4.8382212346       -3.7189811451        3.2370793872
 H         4.5442618767       -4.6503913808        1.9254430975
 H         6.1241566806       -4.8611501233        2.8147357873
 H         1.2001522395       -3.1201268822        0.1597688155
 H         1.9340425012       -1.5626676232        0.1900133568
 H        -1.9343295965       -4.3842325915        2.6168372394
 H        -2.7205860413       -2.9935517163        2.6741518192
 H         1.2175607301       -4.9595853784        1.9830236329
 H        -0.0143755057       -5.1910092919        3.1091377374
 H         1.4652644967       -4.7403365215        3.7561673959
 H         0.9008454320       -2.9435847003        4.9429043185
 H         0.9074642146       -1.4689929556        3.9013095989
 H        -0.6594870647       -2.1794035944        4.4682338385
 H        -3.3244800780       -2.7338832286        0.6168341447
 H        -1.9290403621       -3.5146735250       -0.2220002868
 H        -5.4102973091       -2.5398385374       -1.2103299225
 H        -4.1774145217       -3.3079214360       -2.1823236118
 H        -5.6861453086       -6.9006406440        0.3057272213
 H        -6.9334428740       -5.8941229334        0.9390430212
 H        -5.4107702625       -6.4927978518        2.0033353585
 H        -6.4829207558       -3.5408725765        1.5546504374
 H        -5.0175923874       -3.8719183589        2.4752144997
 H        -5.0720528971       -2.6885494789        1.1970095033
 H        -6.2266774303       -4.2945368902       -3.2421638476
 H        -5.7884110696       -2.5344312326       -3.8883362085
 H       -10.1323642187       -0.1696531759       -1.8833172808
 H        -8.4893156768       -0.3286403463       -1.4259740095
 H        -7.7226133766       -2.4698331860       -5.3524089188
 H        -9.5247320695       -2.5680365049       -5.4363695069
 H        -8.6408976610       -3.9520573133       -4.8518281449
 H       -10.9422499354       -2.8294831421       -3.2356466625
 H        -9.6978614420       -4.1441336602       -2.8141231219
 H        -9.7974874930       -2.9131217890       -1.6017060052
 H        -7.8201472286        1.8697945447       -2.2159814771
 H        -9.0432968168        1.8271650711       -3.5689659807
 H       -10.3720533079        6.7750794521       -1.5460040564
 H       -10.0672772439        7.0691097760       -0.0118176777
 H        -8.6581964558        6.7610284295       -0.8865250466
 H       -10.4777506402        5.3351722805       -3.2167367312
 H       -10.5461862330        3.6705027378       -3.7448879626
 H        -8.9930451428        4.3751819713       -3.5434813876
 H       -12.0480873715        4.8668258059       -0.7890805036
 H       -12.2800589478        4.1698568168       -2.3253271542
 H       -12.0865662260        3.1740960928       -0.8947434667
 Na        3.9582110384        0.2727781743        2.5087331535
