155

 C         3.1031032762        0.2382386718       -5.8365283768
 C         3.3058814359        1.6365031152       -5.4825636746
 C         4.5988214542        2.4473908991       -5.6578780562
 C         5.3304773355        2.6352415199       -4.2860669406
 C         4.7430117609        3.5821578484       -3.2841731406
 C         5.3964382495        1.7569206107       -6.7338029443
 C         3.9857221800        3.8906105269       -6.2210538244
 O         2.2701557054        2.2026367557       -5.0027534120
 O         6.4068100510        2.1052050381       -4.0025445021
 C         5.5530268625        3.7917654769       -1.9580856343
 C         4.8968564120        4.6702150285       -0.8479251926
 C         3.6534330298        4.3229300146       -0.0396424375
 C         4.4053660074        3.2840438167        0.9751059351
 C         4.9145595635        3.8241560069        2.2818253048
 O         5.4307563117        5.7361650998       -0.6206006018
 O         4.6511869866        2.1107126403        0.5754436242
 C         2.9780773031        5.6451021504        0.5813572403
 C         2.5735050378        3.5626112038       -0.9617990213
 C         6.1373558667        3.0335340473        2.8480050589
 C         5.8063881379        1.6880334392        3.4262762877
 C         6.9853696045        0.7947030682        3.8886644917
 C         7.4636073555       -0.1044287155        2.5446783387
 C         7.7843929564       -1.5604526093        2.6409615820
 C         8.1400444847        1.8240985220        4.3224385128
 C         6.7405679880       -0.0971003899        5.0884177861
 O         4.5811024382        1.2813745175        3.5162045818
 O         7.4016339696        0.4328835873        1.4351212845
 C         7.5888254134       -2.2871578093        1.3478556268
 C         6.2049131050       -1.7097684552        0.6097637959
 C         6.0172630196       -1.9205371298       -0.9466260927
 C         4.4493509152       -2.1579041215       -1.1369621600
 C         3.6012796087       -3.2089952002       -0.1866458045
 O         5.3826730967       -1.2534699466        1.3239854974
 O         3.9820751717       -1.7327990447       -2.1628314540
 C         6.4463196193       -0.5629617058       -1.3728709309
 C         6.8764626189       -3.0222468351       -1.5186518295
 C         2.0472098351       -2.8041645974       -0.3172532246
 C         1.5335330464       -2.3928180544        1.0952134113
 C         0.4624719581       -3.2437869951        1.7365900269
 C        -0.7700311147       -3.7164678629        0.6334628224
 C        -1.7332053317       -4.7746878693        1.0647871140
 C         0.7812183211       -4.3220159742        2.8152772929
 C        -0.4551828492       -2.1680460653        2.4587894479
 O         2.0110802917       -1.4039463496        1.6792160206
 O        -1.0848996654       -3.0604885857       -0.2934576700
 C        -3.1290753887       -4.2314163353        0.9926192512
 C        -4.0780840508       -5.3176475604        1.5334996752
 C        -5.6447675754       -4.9610097245        1.8204952743
 C        -6.6311061657       -5.3507068938        0.5245308817
 C        -6.1661352516       -4.6192347255       -0.8234026648
 O        -3.6889231656       -6.4234290645        1.8646223011
 O        -7.6522901540       -5.9731239370        0.6034150691
 C        -6.1346879036       -5.8850809843        2.9867643378
 C        -5.9105965034       -3.4318426322        2.1615752073
 C        -7.3521083235       -3.8691691034       -1.4313155007
 C        -7.7007818627       -2.4594789110       -0.9696854199
 C        -9.0796492634       -1.6729768852       -1.1658385756
 C        -8.9950311882       -0.1346140040       -1.2763217148
 C        -9.9610352601        0.6818065460       -0.3250981077
 C        -9.7557602044       -2.1245629896       -2.5111649396
 C        -9.8620334436       -2.1014820576        0.1340248038
 O        -6.6988979006       -1.8994972715       -0.4803916977
 O        -8.3176770398        0.4378530955       -2.1420160217
 C        -9.7009061665        2.0784724621       -0.7467000743
 C        -9.9563600247        3.1627987031        0.4553542566
 C       -10.2611197605        4.7348899576        0.2405003892
 C       -10.4269657658        5.0406417678       -1.2337384662
 C       -11.1271847958        6.3168090628       -1.7511783323
 O        -9.8437371558        2.7872920924        1.6000724674
 O        -9.6034729282        4.6465685196       -2.0608230870
 C       -11.5109309985        5.2899789433        0.9777504072
 C        -8.8275516664        5.3742057583        0.7005992178
 H         2.6434782830        0.1493351762       -6.7756011676
 H         4.0518692757       -0.2583317124       -5.8332564081
 H         2.3388784596       -0.1289173956       -5.1982649628
 H         4.5301775746        4.5381539125       -3.7301055306
 H         3.7351543766        3.2056708917       -3.0647340318
 H         6.3230068368        2.3635943963       -6.8668170105
 H         5.0153366354        1.3665179692       -7.7269390430
 H         5.7862811715        0.9086976299       -6.2660446156
 H         3.1350116984        3.4973204409       -6.8209823359
 H         3.4315034556        4.3722150889       -5.4424742321
 H         4.5591275014        4.5932002141       -6.8392971827
 H         5.8173501857        2.7779396273       -1.6984144538
 H         6.5316319281        4.2623591110       -2.1818102969
 H         5.3166570918        4.8718681760        2.1311182298
 H         4.1507790829        3.7255273907        3.1685619821
 H         3.0126620269        5.7279748094        1.6329595957
 H         1.9583882117        5.6822041646        0.3196549309
 H         3.5032724746        6.4034615503       -0.0596524652
 H         1.7856633310        3.0906618419       -0.4322439983
 H         2.0650671746        4.0613288137       -1.7520690055
 H         3.1923823775        2.7445591075       -1.3772472662
 H         6.4772484207        3.5408592018        3.8309204285
 H         6.9773624450        3.1679832065        2.1486163776
 H         8.7044193126       -1.8275191375        3.0900886623
 H         7.2555462502       -2.0070351682        3.4375173915
 H         8.7002970516        2.3846763812        3.5314134171
 H         8.9605315799        1.3172323484        4.7022915819
 H         7.7202609966        2.4507348281        5.1125270755
 H         7.6179880324       -0.5764326412        5.5634260720
 H         6.1126283113        0.4404676177        5.7783378723
 H         6.0144642451       -0.8624890509        4.7839251503
 H         8.4470637711       -2.1872690174        0.7380072188
 H         7.4163531412       -3.2438814484        1.6253049400
 H         3.8078332537       -4.2864224477       -0.5346041586
 H         4.0846841081       -3.0411323803        0.8065852809
 H         7.1165340918       -0.0173386582       -0.6784941570
 H         5.5634269535        0.1021969409       -1.5085464222
 H         6.9544862175       -0.5024053481       -2.3317515031
 H         7.0326230099       -3.8749677376       -0.8698704026
 H         6.6398578364       -3.2334144926       -2.5133556305
 H         7.9867199656       -2.7742313873       -1.5367855712
 H         1.5216861753       -3.7187835974       -0.5626349805
 H         2.0441977286       -1.8862696918       -0.9545419293
 H        -1.6082916947       -5.6387651851        0.4815867227
 H        -1.5595184090       -5.2045505439        2.0563489517
 H         1.2756229077       -5.1794361073        2.4723385181
 H        -0.0444237297       -4.5697803080        3.3451498352
 H         1.5486549538       -3.9383771291        3.4983491045
 H        -0.7985307958       -1.5234853165        1.6704112822
 H        -1.3898508336       -2.4073777151        3.0076067891
 H         0.1910771199       -1.5608656052        3.1066796155
 H        -3.1976202899       -3.3340957058        1.6962400123
 H        -3.3995508086       -4.0702117770       -0.1019416239
 H        -5.3153550303       -3.9591878513       -0.5353060110
 H        -5.9510765000       -5.4167562278       -1.5875722918
 H        -5.7907648857       -6.8791893054        2.6886219950
 H        -7.2158676175       -5.7074670812        3.0989293756
 H        -5.5901670908       -5.7754218738        3.9239305808
 H        -6.8309089028       -3.0834407448        1.9100539814
 H        -5.8339010633       -3.3689815354        3.2795828197
 H        -5.2314086314       -2.7328124372        1.7389671205
 H        -8.1714567298       -4.4896071000       -0.9540323069
 H        -7.5017613973       -4.0026835728       -2.4546181504
 H       -11.0091413924        0.3322971700       -0.3217953398
 H        -9.6401288829        0.5652903803        0.7897049782
 H        -9.2767353485       -1.7721452366       -3.3523331917
 H       -10.7634986345       -1.7263673859       -2.5558411028
 H        -9.7983425164       -3.2536006041       -2.6858665370
 H        -9.2335021973       -1.7372950961        0.9742624910
 H       -10.8250949425       -1.6468276037       -0.0050696768
 H        -9.8309514753       -3.1954443771        0.2703099304
 H        -8.5876980160        2.1208036251       -0.9004636955
 H       -10.3502461417        2.1946506917       -1.6321165667
 H       -10.6088115888        6.5313583585       -2.7231385394
 H       -12.2631642133        6.3594934042       -1.8217500922
 H       -10.8932257055        6.9541743196       -0.8926686451
 H       -11.0988800881        6.0712605415        1.6990057862
 H       -12.1521757412        4.5780380993        1.5891580748
 H       -12.1040842935        5.9549249958        0.4051364017
 H        -8.8007721130        5.2427445936        1.8013005016
 H        -8.0084752071        4.9741586007        0.1559618413
 H        -8.9016657383        6.5050908209        0.5564652371
 Na        3.8361769556        0.0555477133        1.5448087694
