155

 C         3.3818002430        0.4758137516       -4.3854020936
 C         3.5007321933        1.8967156161       -4.9283873151
 C         4.8801179563        2.3155265177       -5.6856863529
 C         5.9577142026        2.9862846290       -4.7372799044
 C         5.4940497216        4.2041387983       -3.8390593594
 C         5.6466695076        1.2729970959       -6.3593853241
 C         4.3521457002        3.3335001105       -6.9190306837
 O         2.6526510443        2.6952764749       -4.7912690299
 O         7.0691033418        2.4669851543       -4.6188128608
 C         5.1867372561        3.4383940574       -2.5200373051
 C         4.9320847445        4.5688075733       -1.4370581430
 C         3.5002542463        4.3720373798       -0.4593337640
 C         4.0000857163        3.0980640737        0.6165530407
 C         5.2238157593        3.4600829548        1.5529033941
 O         5.7694039720        5.4304276550       -1.2267885981
 O         3.5813784863        1.9899851178        0.4929229408
 C         3.3392560539        5.7562344953        0.3646177352
 C         2.3695404483        3.8768643094       -1.2839360821
 C         5.9939286725        2.2891821056        2.2869555071
 C         5.5513621412        0.9345202806        3.1745469355
 C         6.8302713321        0.2624680128        3.6794210604
 C         7.8264126653       -0.1331914128        2.4816632883
 C         7.9898783319       -1.5997251293        2.1012420264
 C         7.4899182453        1.2550095215        4.6977742050
 C         6.4082128051       -0.9611550365        4.5175425350
 O         4.4817209916        0.6264651780        3.5322355637
 O         8.3287745581        0.7068448833        1.8272962741
 C         7.5571828211       -2.1072423580        0.6471235749
 C         6.1762004795       -1.6289501853        0.2903734893
 C         5.6568131030       -1.5524263647       -1.1234700117
 C         4.2081740548       -2.2322095346       -1.2869041455
 C         3.5068277239       -3.1472600924       -0.1636149904
 O         5.5252546967       -1.1919392291        1.2774564638
 O         3.7052209598       -2.2295804371       -2.3820319395
 C         5.4944989562       -0.1448444927       -1.6979718344
 C         6.5323344387       -2.3790186831       -2.0534678635
 C         2.0069698050       -3.3010657203       -0.3066837584
 C         1.3078594382       -2.5258802602        0.7794630656
 C         0.2786846017       -3.3496818365        1.5249098541
 C        -0.7912859077       -3.7031868417        0.4260098004
 C        -1.8884537382       -4.5903791781        0.7531605876
 C         0.7600229534       -4.5855792087        2.2832260546
 C        -0.3838894894       -2.2721253218        2.4302302768
 O         1.6680700952       -1.3702960777        1.0546377585
 O        -0.7711948778       -3.0793849302       -0.6131261713
 C        -2.9778264049       -4.0941299449        1.8158332054
 C        -4.1678222662       -5.0228933707        1.6503167022
 C        -5.5813814351       -4.7018531868        2.2965219634
 C        -6.5063308980       -4.8138335483        1.0887443401
 C        -6.1567690800       -4.2566801210       -0.3599649297
 O        -3.9080403773       -6.1144153833        1.1652013113
 O        -7.3916759399       -5.6490115131        1.2319113988
 C        -5.8101505661       -5.8095004552        3.3868546243
 C        -5.5591909041       -3.1992841528        2.9145009553
 C        -7.3872884898       -3.6023712689       -1.0908804292
 C        -8.0031452987       -2.3896443240       -0.3949283678
 C        -9.3177363433       -1.6325184197       -0.7790891899
 C        -8.8932812566       -0.0689033021       -1.0223909555
 C        -8.9817194185        0.9771618818        0.2096064235
 C        -9.9484592182       -2.2128127998       -2.0846013653
 C       -10.2555349502       -1.7604509762        0.4873626370
 O        -7.3058397550       -1.9524279730        0.5586996959
 O        -8.4924611713        0.2930082695       -2.1269328284
 C        -9.2201593572        2.4840905138       -0.2392789307
 C        -9.7575216175        3.3703276216        0.9863656335
 C        -9.9564193317        4.7689785935        0.4096350824
 C       -10.6442721130        5.0057014366       -0.9631046583
 C       -12.2388155128        5.2639804942       -1.0871023107
 O        -9.8351556995        3.1108291443        2.1456548707
 O        -9.9856956695        4.8278060088       -1.9059181571
 C       -10.5647992968        5.5210441127        1.5520497243
 C        -8.5107514823        5.4262865279        0.0947759351
 H         3.6419365779        0.4742982384       -3.3168678985
 H         2.2573728069        0.1855377823       -4.4486927506
 H         3.9428973520       -0.2473846687       -4.9256016406
 H         6.3205890654        4.9376980939       -3.6187413591
 H         4.7801562960        4.9353439011       -4.0437714301
 H         6.3871179049        1.6207887744       -7.0369722267
 H         4.9882538087        0.6376529247       -7.0451128110
 H         6.0541618545        0.5358601078       -5.6340541045
 H         3.8358437772        2.7839853324       -7.6818232798
 H         3.9710003953        4.2396069869       -6.5825850758
 H         5.2852289387        3.8256637723       -7.2291909071
 H         4.3665012973        2.7535443273       -2.7001253126
 H         6.0641028439        2.8523345572       -2.2154776139
 H         6.0842682845        3.7490839616        1.0288275099
 H         5.0077540461        4.1934897668        2.3201878916
 H         2.4930385272        6.2946881820       -0.0351825834
 H         4.2825349257        6.2617166090        0.4572655634
 H         3.1752335442        5.5749391595        1.3855924754
 H         2.2683301916        2.7417341012       -1.5119904129
 H         1.4886879387        4.1458742039       -0.6535823471
 H         1.9009474517        4.4450592111       -2.1274918278
 H         6.6285384343        2.9377833651        2.9094630436
 H         6.7292161302        1.9839109314        1.4888357977
 H         9.0476597639       -1.8361239199        2.2418909729
 H         7.4088186198       -2.1791218944        2.8705099150
 H         7.9512617477        2.0447551615        4.0614086129
 H         8.0609589429        0.8842444852        5.5502030945
 H         6.7393311173        1.8051366553        5.1922237304
 H         7.1841168213       -1.5270787740        4.9929630883
 H         5.6812165340       -0.6836026822        5.3168298617
 H         5.9336447255       -1.5238382576        3.7901044082
 H         8.1962723008       -1.5910678157       -0.0245974929
 H         7.4378252068       -3.2355436240        0.5478513148
 H         3.9204532300       -4.1710714081       -0.3590567993
 H         3.7745822036       -2.7454283302        0.7086734532
 H         6.3113581118        0.4624016990       -1.4087533715
 H         4.5603571609        0.3903955530       -1.3072750976
 H         5.2822033176       -0.0798471654       -2.7975854328
 H         6.4915867227       -3.4492837577       -1.6389993077
 H         6.1831366395       -2.4695933767       -3.1029280036
 H         7.5531502557       -2.0187715137       -2.1012294176
 H         1.6423543126       -4.2823701765       -0.3843641366
 H         1.7512204836       -2.9757863369       -1.3758869501
 H        -2.3133446500       -4.7934797403       -0.2718216769
 H        -1.4583744706       -5.4627180460        1.2291761980
 H         1.1790917070       -5.3752164575        1.7180835892
 H         0.0515637888       -5.0541796816        2.8909486746
 H         1.4752114277       -4.2936896236        3.0337992181
 H        -1.2136339619       -1.6993335766        2.0327885689
 H        -0.7888245588       -2.6182447480        3.4099568361
 H         0.3017858017       -1.4538478163        2.6326258369
 H        -2.6657937093       -3.9344717256        2.8360086446
 H        -3.2712966003       -3.0806152079        1.5849761550
 H        -5.3471697113       -3.6063754223       -0.2783308087
 H        -5.7570313089       -5.1708504093       -0.8610595522
 H        -6.1073934864       -6.7055965943        2.7776902529
 H        -6.5075474240       -5.7382561996        4.1962104194
 H        -4.7457812938       -5.8459259980        3.8215744015
 H        -6.5911268602       -2.8940582400        3.1380159938
 H        -5.0858116479       -3.2754826158        3.8552580622
 H        -5.2151054399       -2.4167649655        2.2931405944
 H        -8.0856647463       -4.4105179861       -1.1051015566
 H        -7.1331370229       -3.2062738385       -2.0708548341
 H        -9.8056964551        0.7626465096        0.9417892030
 H        -7.8920399856        0.8710886222        0.5828623500
 H        -9.2606332865       -1.7224878808       -2.8151232735
 H       -10.9696687118       -1.9833653876       -2.3979442814
 H        -9.8245162053       -3.2971309558       -2.1972759070
 H        -9.5555042034       -1.8478410191        1.3779076890
 H       -10.9871001474       -0.9625887029        0.6590735232
 H       -10.8697076176       -2.6537151825        0.1011809430
 H        -8.3561179385        2.9348102596       -0.6387393232
 H        -9.9719971807        2.5119385615       -1.0265101200
 H       -12.6366413894        4.6570530423       -1.9178876700
 H       -12.5038065250        4.8688364994       -0.0634416700
 H       -12.5865623340        6.3483285954       -1.0836793746
 H       -10.4166077547        6.5737942054        1.3795469166
 H       -10.1168646353        5.2244841208        2.5086745697
 H       -11.6797404612        5.2759311117        1.6242840860
 H        -8.0680935624        5.6811542329        1.1180211097
 H        -7.8099190303        4.8858552976       -0.5529928335
 H        -8.8605495459        6.2964778762       -0.4279918916
 Na        3.5745191012       -0.0517320361        1.4223259356
