155

 C         2.6409019710        2.3388720781       -7.3784367191
 C         3.6076278289        2.7707422365       -6.2512547559
 C         5.3117775094        2.3895087284       -6.1993150351
 C         5.4888764970        2.4809055379       -4.5151387848
 C         6.4244976419        3.5094411829       -3.7598495865
 C         5.4141870510        0.9485487204       -6.7535184408
 C         6.2520430020        3.4404683484       -6.9114905972
 O         3.1979281578        3.5695381149       -5.4514552683
 O         4.8002359221        1.6822278246       -3.8832988911
 C         6.1087456747        3.3456294953       -2.2649965236
 C         5.4732448475        4.4923242638       -1.4654581145
 C         4.0732936086        4.3098994259       -0.9002633981
 C         4.1776420096        3.1081276929        0.1104883176
 C         4.9840767039        3.4175357168        1.4362479397
 O         6.1008499685        5.4536939668       -1.1650284446
 O         3.4108451598        2.1660629898       -0.0349907262
 C         3.5974388856        5.5317674152       -0.1254052118
 C         3.0440566195        4.0626133049       -2.1415541100
 C         6.2447063512        2.5892438443        1.7041654675
 C         5.8834491797        1.2003211015        2.1539713584
 C         6.7341006447        0.0219768014        2.5641554412
 C         7.4208072972       -0.4734056846        1.3125881757
 C         8.0645617286       -1.8953142529        1.1971677336
 C         8.0314567464        0.4956645271        3.3128056332
 C         5.7754086826       -0.9197107905        3.2619129232
 O         4.6960043582        0.8554410217        1.9661396885
 O         7.6669595148        0.3256344453        0.3815532508
 C         7.4505607131       -2.7615792797        0.0215380162
 C         6.1214507265       -2.3056315334       -0.4425403523
 C         5.5585745455       -3.1847292366       -1.5711738379
 C         4.1201040070       -2.6578954897       -1.7851664399
 C         2.9048879375       -3.5737926669       -1.6606039503
 O         5.4614872241       -1.4572502681        0.2068726127
 O         4.0621995352       -1.4553014847       -1.9174664627
 C         6.4323164652       -2.9780885644       -2.8432629722
 C         5.6679058637       -4.7720330150       -1.0996811850
 C         1.5571230122       -2.8254661963       -1.4611318340
 C         1.4398756476       -2.4299300220       -0.0091067316
 C         0.4415771870       -3.1986202870        0.9094687422
 C        -0.9886590909       -3.1959781441        0.3517685315
 C        -2.0039310056       -4.2514915831        0.4724007275
 C         1.0656171014       -4.7002518708        1.0719261648
 C         0.5379136806       -2.6742315231        2.3393842268
 O         2.1090758565       -1.5486105581        0.4849069994
 O        -1.1552690099       -2.2199379072       -0.3564631804
 C        -2.7746190250       -4.4693851991        1.9079789109
 C        -4.2234765238       -5.2711641002        1.6921290436
 C        -5.2896823806       -5.2884376251        2.8881626998
 C        -6.7983943262       -4.8455575838        2.3103320213
 C        -6.6960994805       -3.5499425913        1.3554368180
 O        -4.5243959774       -5.7603669551        0.6497565180
 O        -7.8447896472       -5.2852916628        2.7052917860
 C        -5.2775486843       -6.7266455309        3.4736523971
 C        -5.0147372444       -4.3349188180        3.9819582374
 C        -8.0307229216       -2.9555686018        0.9800751352
 C        -8.3988711889       -1.6315050124        1.6836017748
 C        -9.7647059296       -1.0637103400        1.4682837800
 C        -9.2668419743        0.1249624113        0.6107077504
 C        -9.0548414639        1.5770058153        1.1694093662
 C       -10.6707156253       -1.9848038172        0.7335728470
 C       -10.5869596800       -0.7681792966        2.7343354635
 O        -7.4702696085       -1.0408419886        2.0974832590
 O        -9.0654698495       -0.1693304696       -0.5599937344
 C        -8.9731188585        2.7707680056        0.1608371825
 C        -8.9264195213        4.0454745414        0.8201932418
 C        -9.8352740937        5.3317519147        0.3817349557
 C       -11.1894518497        5.2600242918        1.0694703766
 C       -11.8762848040        3.8544243368        1.1378508554
 O        -8.0996923064        4.2039157920        1.7201629108
 O       -11.5056297204        6.2586243226        1.6771862830
 C        -9.1485046582        6.6473096062        1.0665327949
 C        -9.9575950569        5.2689486648       -1.2000875330
 H         2.6725767295        2.7857764617       -8.3837397418
 H         2.5627933258        1.1950749121       -7.5964710016
 H         1.6243919134        2.5872436708       -7.1388750477
 H         7.4721776855        3.4436662668       -3.9906931380
 H         6.0513618905        4.5012520118       -4.1837885939
 H         6.5026946336        0.6645576716       -6.7320450346
 H         5.2665187146        0.9865196488       -7.7612536764
 H         4.8629727897        0.2080789805       -6.1720066509
 H         5.8877427608        3.3744937449       -7.8950817540
 H         6.4483223561        4.3644041031       -6.4253316745
 H         7.1934743732        3.0298026677       -6.9555586055
 H         5.4569741048        2.5302518011       -2.3460469897
 H         7.0351825911        3.0276940419       -1.7357830490
 H         5.3738833223        4.4882179615        1.3104634739
 H         4.1832844426        3.2833804704        2.1260579763
 H         3.3669819847        5.1372824566        0.8301705664
 H         2.7621135734        6.0288729795       -0.6190051270
 H         4.4185374112        6.2717547194       -0.1275431053
 H         2.7797962961        4.9492886949       -2.7246142292
 H         3.2067765474        3.3786915423       -2.8818471942
 H         2.0034924983        3.7406654238       -1.8579717967
 H         6.7541331195        3.0844579322        2.5016092911
 H         6.8822051642        2.4188228092        0.8788674763
 H         9.1474416114       -1.7614004337        1.2000125836
 H         7.9048491944       -2.5673146734        2.1132370900
 H         8.6965957445        1.0123021318        2.6763269318
 H         8.5601368207       -0.4038662042        3.7133433698
 H         7.7917148391        1.1248440311        4.2142500912
 H         6.3350984164       -1.8254549391        3.6052690378
 H         5.3333931785       -0.4088664550        4.0960520051
 H         4.9850063104       -1.3371140941        2.5587607766
 H         8.2643880925       -2.9508787089       -0.8031821953
 H         7.3176828660       -3.7737280930        0.4322117760
 H         2.8781515790       -4.1894133970       -2.5481767181
 H         3.0843688602       -4.3968194325       -0.8124368461
 H         6.6665989339       -3.9662011909       -3.2474295732
 H         7.2648760474       -2.3753614571       -2.5767089634
 H         5.9150114869       -2.4873413908       -3.6695759874
 H         5.2586617270       -4.6636744811       -0.1688913756
 H         4.9803944966       -5.3964776263       -1.7036887218
 H         6.6828541956       -5.0063056236       -1.2739181333
 H         0.8351906392       -3.6029444917       -1.6944913781
 H         1.6606375273       -1.9555936152       -2.0729819297
 H        -2.8240007425       -4.1324012510       -0.2297422540
 H        -1.5780367472       -5.2931169086        0.3121509570
 H         1.1891179118       -4.9556920486        0.0399196700
 H         0.3383167050       -5.2998180810        1.4735894855
 H         2.0065543363       -4.5772661634        1.5879469626
 H        -0.0378378122       -1.7636458044        2.6345086426
 H         0.3349057096       -3.3448728787        3.1253822401
 H         1.5507251758       -2.3223946166        2.5945696568
 H        -2.0541988130       -4.9768167106        2.5640830388
 H        -2.8891696536       -3.5509800915        2.3885795693
 H        -6.1816869867       -2.6893550792        1.7896704396
 H        -6.1173970963       -3.8256673962        0.5020430480
 H        -5.3052109856       -7.5279274342        2.7198718970
 H        -6.1852327722       -6.9271569588        4.0593915236
 H        -4.4152573370       -6.8711595439        4.1208819279
 H        -5.2969075901       -4.9409335032        4.8657017585
 H        -4.0462965043       -4.0781883712        4.1223140402
 H        -5.6079562573       -3.4657139570        3.8661467865
 H        -8.8591061751       -3.6810912358        0.9954214944
 H        -8.0064554898       -2.5218107737        0.0250928053
 H        -9.7894560489        1.6156081344        1.9425433470
 H        -8.1650501278        1.6229420788        1.6653575089
 H       -10.3717568812       -2.1759447591       -0.2196462637
 H       -11.5491409785       -1.2883118684        0.5743809367
 H       -10.8015640991       -2.9269690878        1.2994935922
 H        -9.9981834578       -0.0760999217        3.4694442371
 H       -11.4503351592       -0.0828552176        2.5757633389
 H       -10.7611771460       -1.7311484167        3.4039431103
 H        -8.0809729457        2.7607594191       -0.4756207854
 H        -9.8242198109        2.7106505780       -0.5587895023
 H       -12.2030062484        3.6115645065        0.1034919646
 H       -11.2483234678        3.1401713528        1.7799707018
 H       -12.7896678570        4.0501233068        1.7625322948
 H        -9.6112817308        7.6179154249        0.7902757558
 H        -8.1178610778        6.7748077989        0.7964659980
 H        -9.3150127357        6.5266680752        2.1589317091
 H       -10.3807496733        6.1880991754       -1.5148536188
 H        -8.9371250307        5.2572454631       -1.6918157519
 H       -10.5370672694        4.4905001223       -1.7560851650
 Na        3.5547142498        0.0497524502        0.3630269650
