155

 C         3.6219548299        3.9632039223       -8.2902572296
 C         4.1051203683        3.5376665551       -6.8629405670
 C         5.3441979406        2.4335455150       -6.5517382151
 C         5.4405193407        2.3766909229       -4.9535138916
 C         5.9977364823        3.4789922472       -4.1102918548
 C         4.9268485122        1.0523998191       -7.1731448232
 C         6.6553308324        2.9655816256       -7.1348219996
 O         3.5735992447        3.7954261176       -5.7971656289
 O         5.2202713618        1.3579126851       -4.3820776452
 C         6.0492947591        3.0539881753       -2.6803337601
 C         5.5580440955        4.1223709327       -1.6013069298
 C         3.9291998574        4.2306301639       -1.1527101888
 C         3.7448337193        2.9085157781       -0.4184243674
 C         4.4184134214        2.6937128175        0.9994794220
 O         6.4739874773        4.7123518644       -1.0455863133
 O         3.3195808811        1.9416050172       -1.0066573469
 C         3.5870114458        5.5085890108       -0.2644004665
 C         3.2695639757        4.4071353975       -2.4916262187
 C         5.8690614427        2.2096142666        1.0561217319
 C         5.9259494170        0.8456070302        1.7591252968
 C         7.3670193141        0.1638078742        2.2813367288
 C         7.6860175927       -0.7656668756        1.0321740012
 C         7.7889789761       -2.3121200656        1.1178912967
 C         8.4779776409        1.3297017945        2.4999424600
 C         7.1297068246       -0.5213355307        3.6523381899
 O         5.0092340425        0.1869212307        2.0540105074
 O         7.8118816061       -0.2544478796       -0.0543623913
 C         7.6004800704       -2.8148433045       -0.3023354892
 C         6.1251008378       -2.7640060318       -0.3769443886
 C         5.3629198728       -3.5435799965       -1.5433657446
 C         3.8706273458       -2.6713320907       -1.7610536599
 C         2.4623629911       -3.4297279108       -1.8762154551
 O         5.3811007238       -2.0546660008        0.3300506188
 O         4.0264662766       -1.5095487948       -2.0348052587
 C         6.1274540492       -3.3763192341       -2.9600918230
 C         5.1417704980       -5.0435315228       -1.3440935333
 C         1.2656731746       -2.4431199931       -1.4618933071
 C         1.3413658592       -2.3128311971        0.1181173851
 C         0.3129481924       -3.1465733294        0.9189079706
 C        -1.2015857824       -2.9071222674        0.2934993379
 C        -2.3050587020       -3.9857377389        0.1211868238
 C         0.6167001836       -4.7878510065        0.8069422551
 C         0.3404050221       -2.9089195482        2.4637508868
 O         2.1202032492       -1.6430114584        0.7452324014
 O        -1.4559497865       -1.7418239583        0.1309127653
 C        -3.4615909033       -3.8483315496        1.2662732034
 C        -4.2210224180       -5.2454222731        1.5839905798
 C        -5.2149246656       -5.3606813173        2.8425823043
 C        -6.7455804767       -5.1109966516        2.2412389102
 C        -6.7450700222       -3.7606887841        1.4296846254
 O        -4.0545797571       -6.2148600101        0.8111720498
 O        -7.7165768020       -5.6228335003        2.7333190369
 C        -5.1846443815       -6.7665915415        3.3740411930
 C        -5.0053003216       -4.3104669333        3.9545053576
 C        -8.1204349479       -2.9601526416        1.5982530550
 C        -8.0176849206       -1.7278187164        2.4980242867
 C        -9.4532018284       -0.8191413820        2.6414470936
 C        -9.5861874161        0.2778444880        1.4785984610
 C        -9.4925595580        1.8137944797        1.6531763453
 C       -10.7262849619       -1.7642442691        2.8273575949
 C        -9.3315904636        0.0215058286        3.9117732546
 O        -7.0626463965       -1.3139543462        3.0830889643
 O        -9.4122562515       -0.1564635412        0.3449682273
 C       -10.0380880815        2.6965604340        0.4788867875
 C        -9.2558302804        4.1498259814        0.7083648702
 C       -10.0095345848        5.4947174402        0.4793784691
 C       -10.9804151512        5.8309888413        1.6931455277
 C       -12.3357755225        5.1778883942        1.7252812692
 O        -8.1111964702        4.1868759050        1.0993671480
 O       -10.4887757895        6.3522600578        2.6590655077
 C        -8.9628329023        6.5346900830        0.3634080449
 C       -10.9812310742        5.4132018969       -0.7240356136
 H         2.6416897874        4.4037046362       -8.1777561089
 H         4.1707437131        4.4373071234       -8.9956742596
 H         3.2824250235        3.0230172091       -8.7701465255
 H         7.0048404461        3.5445214593       -4.5167883347
 H         5.6732816922        4.4940267853       -4.4938673584
 H         5.6357634359        0.3707449701       -6.7882328247
 H         5.0655067623        1.1948297871       -8.2733122372
 H         3.8366605511        0.7251426827       -7.1432643211
 H         6.4546302683        3.0903784637       -8.2337761598
 H         6.7313852237        4.0086621713       -6.9861013620
 H         7.5559340095        2.2941529555       -7.0222566124
 H         5.5620367377        2.0777166847       -2.6695083463
 H         7.1040885755        2.7598395583       -2.3705066015
 H         4.3365241828        3.6025843441        1.4477053415
 H         3.8754056810        1.9518833179        1.5557183390
 H         4.5133005253        5.6081400258        0.4111332846
 H         2.6530528879        5.3233620834        0.3712558722
 H         3.6985915884        6.3082566234       -0.9606275782
 H         3.7841265540        5.1147913864       -3.1611335389
 H         3.0926974838        3.6410726159       -3.3214470692
 H         2.2369589099        4.8935595987       -2.4131881463
 H         6.5179448768        2.7768599060        1.6599273949
 H         6.3400055587        2.2326348364        0.0533235859
 H         8.7892901505       -2.4694055754        1.5273025725
 H         6.9092680536       -2.6361105008        1.7962584076
 H         8.6366364444        1.9311006765        1.5552527930
 H         9.4584639701        0.8726346117        2.7596309121
 H         8.1603580767        1.9902634373        3.2173874971
 H         7.8281889441       -1.2938349567        3.8714547241
 H         7.1575476116        0.1447004363        4.5371763654
 H         6.1792781533       -0.9253332310        3.4877970260
 H         8.0528581732       -1.9246542101       -0.8781431235
 H         8.1266691546       -3.7857555209       -0.5636439885
 H         2.4550825796       -3.6701016940       -2.9130560152
 H         2.4863426787       -4.3261929550       -1.2185862893
 H         6.7706780628       -4.1910618590       -3.3110881412
 H         6.7824656646       -2.5492841426       -2.9531600076
 H         5.3599241614       -3.3200399361       -3.7916074314
 H         4.6637890168       -5.1552125031       -0.3607605211
 H         4.7522363785       -5.4165458436       -2.2629050548
 H         6.1481048233       -5.3106304662       -1.1208394773
 H         0.2533190267       -2.9245082465       -1.7007222814
 H         1.3304145498       -1.5336352563       -1.9800533877
 H        -2.6376372405       -4.0428307267       -0.9238807357
 H        -1.8385646900       -4.9997269207        0.3065543613
 H         0.2924722936       -5.0262957861       -0.1753642184
 H         0.0021543282       -5.1562978820        1.6102355205
 H         1.6863661946       -4.9808183377        1.0041576525
 H        -0.1376019430       -1.9441822623        2.7065261018
 H        -0.3006114159       -3.5792143378        3.0503393125
 H         1.2904315419       -2.7787390768        2.9661175992
 H        -2.8251865373       -3.6298792163        2.1815658259
 H        -4.1930421308       -3.0358112930        1.1381245761
 H        -5.8705178561       -3.1272366086        1.6872174358
 H        -6.6844289000       -4.1012274611        0.4502617281
 H        -4.8940075685       -7.4862680085        2.5777243079
 H        -6.0978667150       -6.9532871251        3.8506256762
 H        -4.4567790608       -6.9624987734        4.1778889932
 H        -4.8148516395       -4.7747742601        4.8875360826
 H        -4.0743453203       -3.7271783474        3.5729630332
 H        -5.8650540585       -3.6473410291        4.1664516788
 H        -8.8283196340       -3.6139523105        2.1689654606
 H        -8.7406123537       -2.7368858107        0.7505293496
 H       -10.1286461289        2.0878586374        2.5348438579
 H        -8.4666146168        2.0342607318        1.7850205055
 H       -10.7218304880       -2.3082000714        1.7758017769
 H       -11.5974247782       -1.2414457599        3.0849693258
 H       -10.6333724767       -2.3711512298        3.7102544594
 H        -8.5567689129        0.7753132430        3.9468439955
 H       -10.2658347202        0.6322141514        4.0841067664
 H        -9.4202988742       -0.5377199985        4.7891218867
 H        -9.7525306983        2.2616706967       -0.4860090580
 H       -11.0525487240        3.0913673614        0.4031464536
 H       -12.9013320225        5.3984684082        0.8434562605
 H       -12.0200275866        4.1328801761        1.7228003228
 H       -12.9180118656        5.4779963314        2.5520494909
 H        -9.3536486867        7.4897733604        0.0239302071
 H        -8.0959501802        6.2425555592       -0.1899639882
 H        -8.6136438948        6.6397139849        1.4359531900
 H       -11.8560344257        6.1102153437       -0.7242420133
 H       -10.3550754780        5.7194410295       -1.5755952151
 H       -11.3460287123        4.4518227240       -0.9992940022
 Na        3.6145125867       -0.0435638928        0.4043920212
