155

 C         3.9908563656        4.1739985127       -8.2074139675
 C         4.2634561493        3.6634759656       -6.7812649996
 C         5.4288683207        2.4717233937       -6.8046636488
 C         5.6081866097        2.2860709928       -5.2454308436
 C         5.9561593518        3.4683277221       -4.2281827147
 C         4.8737988367        1.1027812572       -7.3943015371
 C         6.6016132894        2.9512571603       -7.4959751335
 O         3.6572232421        3.9737151836       -5.7740776101
 O         5.3198219444        1.1491051039       -4.8424016822
 C         5.8956306124        3.1217591348       -2.7186328465
 C         5.6184123327        4.1618109638       -1.7260170827
 C         4.0675410480        4.0659150892       -1.2663436633
 C         3.8248296508        2.7321516348       -0.4818135951
 C         4.2299511460        2.5775561777        0.9479728056
 O         6.3966372568        4.7437274283       -1.0025150311
 O         3.3486103340        1.7511481643       -1.0507419425
 C         3.9367907599        5.2628219591       -0.1502812549
 C         3.1066602206        4.1237811070       -2.4823421974
 C         5.7178826631        2.1171981836        1.0300068077
 C         5.9924024905        0.8005430783        1.8679714154
 C         7.4018015247        0.2970907044        2.2098910454
 C         7.7746147095       -0.7060418774        0.9189901911
 C         8.0462590969       -2.2531995436        1.1498167775
 C         8.6018712936        1.4022674902        2.1203400180
 C         7.3777340995       -0.4481092609        3.5568703661
 O         5.0511784410       -0.0614920419        2.0973710174
 O         8.1940370540       -0.1793037722       -0.1615104415
 C         7.3614986677       -3.1774538648        0.1150012045
 C         5.9530134028       -2.6768037614       -0.4404946408
 C         5.2586333908       -3.3233456438       -1.7739669126
 C         3.8837167429       -2.4570334845       -1.9067377038
 C         2.4698662685       -3.3650226586       -2.1052759625
 O         5.3445538129       -1.8319985620        0.1632299499
 O         3.8566951605       -1.2590185564       -1.8149925094
 C         6.1185789749       -3.2188299395       -2.9803263555
 C         4.8403509750       -4.8814759349       -1.2980903693
 C         1.2872431779       -2.6832807158       -1.4426650451
 C         1.2015053417       -2.5961616703        0.1700206624
 C         0.1733296186       -3.3256875665        0.9893715531
 C        -1.2799903080       -2.8649559707        0.3722677549
 C        -2.4268949916       -3.9499518716        0.2904264211
 C         0.4737170446       -4.8693221514        0.8520291462
 C         0.1297254773       -2.7842481003        2.4726539866
 O         1.8525813861       -1.8336979033        0.8565621594
 O        -1.5492044619       -1.7312162124        0.2179780277
 C        -3.4127265410       -3.8087392663        1.4440577270
 C        -4.1274917999       -5.1432067757        1.5638993459
 C        -5.2359238894       -5.1517723115        2.6710225651
 C        -6.7392616862       -4.6931690509        2.1599926948
 C        -7.1261081706       -3.4497537021        1.3465765731
 O        -3.9335419394       -6.1109439580        0.9010427211
 O        -7.5795108824       -5.4876171784        2.5572068412
 C        -5.3719820857       -6.5701569409        3.1457470905
 C        -4.9764030100       -4.1555136212        3.8524371020
 C        -8.3505817924       -2.8324189147        1.8665407241
 C        -8.0345364116       -1.4909103938        2.6888156588
 C        -9.2437498437       -0.6927167856        2.9462536682
 C        -9.3844006113        0.2680939648        1.7397939198
 C        -9.4626099186        1.8063131735        2.0482844676
 C       -10.5936661929       -1.5029160772        2.9027294629
 C        -9.1045434131       -0.0499819514        4.3454128496
 O        -6.8917128127       -1.4138566877        3.0789843325
 O        -9.5375894953       -0.1380801511        0.6123219012
 C       -10.0075566851        2.5590031455        0.8693033815
 C        -9.2674468517        3.9772260552        0.8640084562
 C       -10.1735325632        5.2615565562        0.5924874959
 C       -10.9592842478        5.7562525876        1.7999972696
 C       -12.4351375459        5.4641985798        2.0811045613
 O        -8.0697272731        3.9599774312        0.8630412517
 O       -10.2787588706        6.3142719911        2.6391912854
 C        -9.1568710624        6.3857503934        0.1959846498
 C       -10.9226712739        5.0515901428       -0.7269511714
 H         3.2180724057        4.9559912614       -8.2939892522
 H         5.0239054779        4.6499175060       -8.6376620450
 H         3.7565361546        3.4038115365       -8.9470405520
 H         6.9515982995        3.8645106497       -4.4971615434
 H         5.4048174383        4.2787246805       -4.5664123347
 H         5.3720264186        0.2550899983       -6.8493097200
 H         5.2900768966        1.0812101079       -8.3701322217
 H         3.8256772978        1.0443717559       -7.4680517949
 H         6.5051644708        2.9608812741       -8.5455892804
 H         6.9693040479        3.9537121721       -7.2624900264
 H         7.2325317363        2.1573023172       -7.3698857397
 H         5.2923101589        2.2005242618       -2.6096580356
 H         6.8697954954        2.8386974848       -2.4220191993
 H         4.1925312427        3.4769845631        1.7359050990
 H         3.4580656747        1.8335604038        1.3412262100
 H         4.8878650037        5.6977565316        0.0521041220
 H         3.5934567957        4.8173568832        0.7222835674
 H         3.2912873275        6.0026038324       -0.6475641291
 H         3.1280839634        4.9505099079       -3.1813123723
 H         3.6315754174        3.4904474135       -3.0740812069
 H         2.0925562739        3.8583727137       -2.5535172515
 H         6.3297804943        2.9426801282        1.4960679350
 H         6.0869100260        1.9978549544        0.0531140156
 H         9.1505811981       -2.2685141119        1.1895533883
 H         7.6196617559       -2.4660278319        2.0811186553
 H         8.5925400428        1.8010848722        1.1487960921
 H         9.5636992712        1.0183034559        2.4265316270
 H         8.3774251231        2.2724723458        2.8541395983
 H         8.3796632742       -0.6942956312        3.9690465885
 H         6.9689834390        0.2094972242        4.2797337610
 H         6.7254605694       -1.3700874317        3.4275316170
 H         8.0270496995       -3.4544809650       -0.6674701509
 H         7.1859112267       -3.9808769528        0.7797815688
 H         2.2404726952       -3.4868557683       -3.1928263346
 H         2.6334572067       -4.3532931786       -1.5964886839
 H         6.0333662119       -4.0881005959       -3.6008437494
 H         7.1685792316       -3.1818851085       -2.6637529066
 H         5.8997330627       -2.4900714596       -3.6886456343
 H         4.3310713564       -4.7776617338       -0.4139020189
 H         4.2846466889       -5.1484849399       -2.1941802334
 H         5.7559903999       -5.4145231459       -1.1164759620
 H         0.3685236274       -3.0490366409       -1.8240332901
 H         1.2602596651       -1.6205486038       -1.9177189065
 H        -2.9321855597       -4.0005753635       -0.6913131288
 H        -2.0257568483       -4.9601308583        0.4108471717
 H         0.4326984381       -4.9600676358       -0.2254675679
 H        -0.3615360269       -5.3465263253        1.2356960221
 H         1.3930035779       -5.0328834057        1.3530702820
 H         0.2029428585       -1.6901444122        2.6578344690
 H        -0.8407171175       -2.9554794254        2.9052077751
 H         0.8714636855       -3.2218680677        3.1304998931
 H        -2.7592381512       -3.7500097815        2.3243631952
 H        -4.1334928659       -2.9983221954        1.3959948471
 H        -6.4315542751       -2.7016792357        1.6347708654
 H        -7.2261855207       -3.6776983919        0.2274555482
 H        -5.9618862506       -7.1351222416        2.4515959310
 H        -5.7429099389       -6.6851667231        4.1724237426
 H        -4.3776858321       -6.9446592610        3.1572021866
 H        -4.6352259741       -4.8635928347        4.6487993443
 H        -4.3230559652       -3.3843556125        3.7972040467
 H        -5.9116053802       -3.7448389413        4.2020731226
 H        -9.0426466552       -3.3944801150        2.4230583322
 H        -8.9540313988       -2.4714749873        1.0264593660
 H       -10.1835463091        2.0119794068        2.7810199078
 H        -8.4249057380        2.0443608537        2.3102014131
 H       -10.8863701984       -1.6252460131        1.9676968740
 H       -11.3291179491       -0.8169091831        3.4610467039
 H       -10.5529352509       -2.3172997342        3.6373587877
 H        -8.3452347226        0.7555435981        4.2020819423
 H        -9.8427291129        0.5254362495        4.9307121751
 H        -8.7465002668       -0.8370800109        5.1512839606
 H        -9.7235515859        2.1516982546       -0.0764585871
 H       -11.0731823821        2.7442117820        0.9068286993
 H       -13.1493136637        6.1385391139        1.5032585256
 H       -12.7503953522        4.4042408362        1.7609318792
 H       -12.5590934386        5.7637336426        3.1993472263
 H        -9.5316993971        7.3824675259        0.2059922122
 H        -8.8057437243        6.1619010710       -0.7930343724
 H        -8.2659614953        6.2790775262        0.7429806500
 H       -10.7075271681        5.8536457249       -1.3664189154
 H       -10.7902254202        4.1277194317       -1.2604801314
 H       -11.9915642187        5.1057408777       -0.4665911657
 Na        3.5567782899       -0.4340388627        0.1542223681
