155

 C         5.5625691526        5.7668754042       -8.2713733940
 C         5.2081484338        4.4587080163       -7.5366147913
 C         6.1745760450        3.0547396097       -7.5962244332
 C         5.6715732475        2.1771528888       -6.5128552364
 C         5.7407902602        2.7420511651       -5.0820846832
 C         5.9862473936        2.3631179133       -8.9896570598
 C         7.6709319051        3.4973517237       -7.2947200423
 O         4.1565709412        4.2530695317       -6.8877249177
 O         5.1636242970        1.0909237504       -6.9049572453
 C         4.5740722967        2.6379100981       -4.2363235176
 C         5.0512352198        3.0418302596       -2.7526519633
 C         3.9903070551        3.4859824399       -1.5522864754
 C         4.0245770341        2.2324952216       -0.6656097288
 C         5.2832144534        2.0589570689        0.2657976742
 O         6.2230725567        3.1337352042       -2.5766674487
 O         3.1472301569        1.3996042139       -0.8011518041
 C         4.5064762661        4.8373835056       -0.8263387088
 C         2.7252463155        4.0662367558       -2.2389751255
 C         6.2994570221        0.9010502619       -0.0917838669
 C         6.8520972877        0.4695198077        1.2633810805
 C         8.3560277395        0.0340355026        1.3285648917
 C         8.3156124715       -1.0681328202        0.3435885284
 C         7.9967869857       -2.5078228039        0.8586849730
 C         9.4011119833        1.1306682670        0.7732318672
 C         8.8557704831       -0.2862820079        2.7630371294
 O         6.1984213339        0.3536324867        2.2025234822
 O         8.5126948366       -0.7908895859       -0.7622290425
 C         7.1943174271       -3.2236599275       -0.3158476361
 C         5.6880911113       -2.7471077342       -0.5492907473
 C         5.0727071393       -3.2212728236       -1.9861543567
 C         3.5400145920       -3.0173387121       -1.9053475604
 C         2.5431496731       -4.2072745025       -1.3768654462
 O         5.0124388492       -2.1243032727        0.3026129298
 O         3.0126860181       -1.9487780018       -2.0976344101
 C         5.5815434238       -2.1116101925       -2.9796025829
 C         5.4358823347       -4.6266614597       -2.4483542196
 C         1.1865679541       -3.6348757274       -1.0825402315
 C         0.8318695374       -2.8612030905        0.2766579424
 C        -0.4383047260       -3.3945091925        0.9681461332
 C        -1.7525397698       -2.4389828743        0.5732522824
 C        -3.0938385680       -3.0274340603        0.2991088675
 C        -0.7143834529       -4.9645346024        0.7421550323
 C        -0.2735825396       -3.0201392063        2.4886038321
 O         1.4339802723       -1.9371979538        0.7502585833
 O        -1.5317627981       -1.2581181708        0.4452740162
 C        -3.9026216754       -3.5525879100        1.6229045195
 C        -4.9584061698       -4.7068232053        1.2161191627
 C        -5.9392163304       -5.2933171542        2.2745116764
 C        -7.1968656712       -4.2069505244        2.5174657606
 C        -6.9488162203       -2.6922661870        2.5308357232
 O        -4.7636110772       -5.3146218214        0.1594372099
 O        -8.2203886918       -4.6950792413        2.8833193234
 C        -6.6765228954       -6.5206370426        1.8093339769
 C        -5.2822719731       -5.3831819105        3.6610504350
 C        -8.1561165683       -1.7108598766        2.8037916165
 C        -7.6691769723       -0.8900484584        3.9082293030
 C        -8.6428334407       -0.1856740590        5.0118229993
 C        -9.7886138069        0.8740833602        4.4371116496
 C        -9.4067186378        1.8463080355        3.3271435196
 C        -9.4649203715       -1.3577892512        5.7714741268
 C        -7.6976423771        0.4260459664        6.1489689379
 O        -6.4914980419       -0.5353984175        3.8456268509
 O       -10.9468657753        0.7835128869        4.7444927293
 C       -10.3774437526        2.9785443176        2.8941920638
 C        -9.8167825618        3.5144371897        1.5680240761
 C       -10.6641996255        4.6663097116        1.0351760018
 C       -10.1416558557        5.9849484372        1.7681623940
 C       -10.9318852563        7.3656983269        1.3634234598
 O        -8.7722744687        3.1442462120        1.0561198682
 O        -9.4152387823        5.8576606119        2.7536044553
 C       -10.5076176644        4.6451132915       -0.5055683681
 C       -12.1986991791        4.4261404510        1.4990277498
 H         4.5520263338        6.1191194670       -8.5218048966
 H         6.2888789870        6.2560874282       -7.6847688445
 H         5.9629263833        5.4587269767       -9.2029482540
 H         6.4745138847        2.1325864963       -4.5489242337
 H         6.1321947564        3.7611563772       -5.1326048379
 H         6.3964427728        1.4295011158       -8.9678471870
 H         6.3592411768        2.9822356035       -9.8073477561
 H         4.9200575150        2.1512704159       -9.1144140260
 H         7.7068052755        4.4437366372       -7.8305009166
 H         7.6360969861        3.9014689866       -6.3574842655
 H         8.5548562741        2.9685854223       -7.5954322261
 H         3.9232196639        3.4731485216       -4.5924856847
 H         3.9816208856        1.6906269705       -4.2921049079
 H         5.9263042123        2.8442903652        0.2778258287
 H         4.9332179479        1.7252370829        1.2459677755
 H         5.4397158814        4.5057103001       -0.2904980554
 H         3.7848016323        5.1814740062       -0.1300161912
 H         4.8672663934        5.5449925466       -1.5940475289
 H         2.8230009836        5.1628717895       -2.5737868724
 H         2.5249978032        3.5484971371       -3.1897456219
 H         2.0696549851        4.0247597860       -1.4211103312
 H         7.0889606124        1.2776032591       -0.7942841536
 H         5.8545467691       -0.0475926599       -0.6117916118
 H         9.0089353794       -2.9193111214        0.9307071569
 H         7.3753915841       -2.4782038917        1.8299980284
 H         9.1249798523        1.3430126866       -0.2627934383
 H        10.4192999769        0.7468641222        0.9735945210
 H         9.2403837345        1.9888343460        1.3954638557
 H         9.5697334820       -1.1267302139        2.7819556913
 H         9.3389348156        0.5714988620        3.3356469350
 H         8.0157887375       -0.6920250119        3.3062103430
 H         7.6541787162       -3.0554481339       -1.2712677012
 H         7.1541971294       -4.2453937355       -0.0202812598
 H         2.4083779680       -5.0529606445       -2.0469244307
 H         3.1159527672       -4.6668046013       -0.5325620410
 H         5.6051414582       -2.5103106968       -3.9739217580
 H         6.6219721190       -1.9924936079       -2.7103689974
 H         5.0476393320       -1.1726909599       -3.0239157499
 H         4.9277097346       -5.4708464225       -1.8111088313
 H         5.1595503808       -4.6146290763       -3.4791988045
 H         6.5305927666       -4.6578533688       -2.3382728766
 H         0.5382267025       -4.5135944496       -1.0701640377
 H         0.9598150178       -3.0098534899       -1.9370302682
 H        -3.7030022234       -2.5258050974       -0.3648066832
 H        -2.7809949312       -3.9160628107       -0.1981425944
 H        -0.9863782596       -5.2281092048       -0.3476968534
 H        -1.5548221412       -5.0049323116        1.5467856228
 H         0.1424867905       -5.6284087174        1.1119294282
 H        -0.4847262813       -1.9879127587        2.3665558999
 H        -0.9744162520       -3.4992192841        3.1769575617
 H         0.7309469802       -3.1806937086        2.8767929507
 H        -3.2688786843       -4.0993322886        2.3721234962
 H        -4.4424599222       -2.8313188965        2.2106976518
 H        -6.0997243772       -2.4665546616        3.2352243493
 H        -6.3512450909       -2.3228644935        1.7358473813
 H        -6.8438017501       -7.2480995734        2.5508021635
 H        -6.0372319186       -6.8775582282        1.0379460810
 H        -7.6560803569       -6.2676321988        1.4700847068
 H        -4.1963974659       -5.2430299865        3.5874961301
 H        -5.5121975956       -4.5049952178        4.3472985161
 H        -5.2952857347       -6.3000602862        4.2203404088
 H        -9.1566426782       -2.2401379633        3.0140720071
 H        -8.3239181599       -0.9912189992        1.9394322704
 H        -8.3115422015        2.2310129324        3.3975447176
 H        -9.2023034112        1.1543397661        2.4330877182
 H        -9.5166363473       -2.2410192205        5.3327932234
 H       -10.5397899903       -1.0582923588        5.7120443047
 H        -9.3056618643       -1.5410962885        6.8949374936
 H        -7.3359493528        1.3698575736        5.9214855551
 H        -8.2570492568        0.3729711668        6.9701673488
 H        -6.9494426776       -0.2787490139        6.2925819003
 H       -11.4237230084        2.6744568802        2.9286964971
 H       -10.3242021570        3.8069511217        3.7518558521
 H       -10.2362974745        7.8833179274        0.6569222262
 H       -11.8265811931        7.1412802314        0.8327417402
 H       -11.0949581809        8.2356748959        2.0582533926
 H       -11.2819164154        5.2807598253       -0.8184207160
 H       -10.7573412457        3.7110097468       -1.0175309842
 H        -9.5881541488        5.0215232895       -0.8231588454
 H       -12.3477177485        3.3760335614        1.2764883418
 H       -12.3706926198        4.7281495580        2.4661966353
 H       -12.8110481569        5.0443129833        0.9242018046
 Na        3.1226707879       -0.7041658261       -0.0974979099
