155

 C         5.9655496246        5.9092779775       -8.7803195403
 C         5.9940386586        4.8294723600       -7.7971752283
 C         6.5358187194        3.3780726984       -8.0150674389
 C         5.8266891527        2.6276437498       -6.8435723068
 C         6.1677791832        2.6397539350       -5.3796697468
 C         6.0378807209        2.7565619444       -9.3116330323
 C         8.0763174917        3.3226396938       -8.1544197385
 O         5.4728493081        5.0540209401       -6.6641052995
 O         4.8069866244        1.9592408136       -7.1325856897
 C         4.8659335016        2.6983024945       -4.5324077722
 C         5.2619186540        2.9066391652       -3.0963826159
 C         4.0215437029        3.1654502954       -2.0432155924
 C         4.0672562171        1.9088188411       -1.1268856056
 C         5.0990901421        1.7158971380        0.0896829468
 O         6.3952191496        3.0845911126       -2.7162174464
 O         3.2530823726        0.9869912957       -1.2915982551
 C         4.3621125236        4.4352104792       -1.1924073024
 C         2.5266074413        3.4620710621       -2.4712776538
 C         6.3733010855        1.0649999768       -0.4884206945
 C         7.3483894325        0.6442724950        0.7439080390
 C         8.6961223448       -0.1460338616        0.3787653892
 C         8.0106242326       -1.3990443230       -0.3656037230
 C         7.5083393378       -2.4432772310        0.5586533724
 C         9.6936737728        0.5612906259       -0.5898150612
 C         9.1978695723       -0.5701346997        1.7529438518
 O         6.7818312924        0.6616255549        1.8166683447
 O         7.5881796477       -1.2733779479       -1.4541676641
 C         6.6681581432       -3.5622113567       -0.0730876137
 C         5.4409063287       -3.0281587554       -0.8110601883
 C         4.8167721358       -3.5635644834       -2.1099540230
 C         3.2668541275       -3.1676592129       -1.9302966511
 C         2.2248511269       -4.1505022291       -1.4425166591
 O         4.9771953358       -2.0364929054       -0.3037691788
 O         2.9325475914       -2.0861758003       -2.3464895903
 C         5.4666249868       -2.6713900317       -3.2328461509
 C         5.1375771634       -5.0253709197       -2.4313809485
 C         0.9516220285       -3.4168523595       -1.1036949608
 C         0.6867629043       -2.9503495187        0.4213046109
 C        -0.4896198682       -3.5698625107        1.1910206876
 C        -1.7601107468       -2.6524651101        0.6210556138
 C        -3.0997693948       -3.2670277462        0.3646254431
 C        -0.6836725181       -5.0415601226        0.9271392744
 C        -0.4377260994       -3.2001729406        2.8345731945
 O         1.3297037971       -1.9890372951        0.9173561412
 O        -1.4994205774       -1.4563205072        0.6155209669
 C        -3.9755574432       -3.4353686333        1.5593121973
 C        -5.5081887566       -3.7349842605        1.2061223166
 C        -6.4269524520       -4.7224888655        1.9641701513
 C        -7.5239083479       -3.9036242684        2.8966126629
 C        -6.9002740561       -2.5058010187        3.4185331431
 O        -5.9057827869       -3.1532234027        0.1886102136
 O        -8.5739559574       -4.3301151757        3.3069793013
 C        -7.0949148272       -5.6374330899        0.8879330585
 C        -5.4233026696       -5.5185084793        3.0446464936
 C        -8.0016958213       -1.8411293840        4.4546177492
 C        -7.4744149324       -0.4389652278        5.0567906226
 C        -8.3429722500        0.3470624634        6.1858673862
 C        -9.3423661375        1.2100805751        5.3370232979
 C        -9.0266751900        1.4658197520        3.8685114907
 C        -9.0242287589       -0.7111482752        6.9847366579
 C        -7.2614531857        1.1382627051        7.0112228987
 O        -6.4176641307       -0.0055254661        4.6848413680
 O       -10.3364966871        1.5791887164        5.8707992647
 C        -9.6634108580        2.7933898755        3.4121413518
 C       -10.3008048874        2.8389789040        1.9690463258
 C       -10.9070415204        4.2124637705        1.6436519001
 C        -9.8969940354        5.3998504316        1.9290950092
 C        -9.1250851160        5.9111967746        0.7571832615
 O       -10.2659361552        1.8867038339        1.1644735191
 O        -9.7306753907        5.9622912358        3.0184399596
 C       -11.5068042834        4.2633245374        0.2382631226
 C       -12.1043184464        4.6651134847        2.5830436783
 H         6.8657289625        6.0013570829       -9.4006743027
 H         5.0840061857        5.6978335707       -9.4506856562
 H         5.8119679686        6.8085335549       -8.2623447228
 H         6.8296621679        1.8521111180       -4.9742377551
 H         6.7952893384        3.5007605409       -5.1656906170
 H         6.5348809491        1.8305837359       -9.3029334098
 H         6.3208249073        3.1585325986      -10.2386059982
 H         4.9383188408        2.5871530670       -9.2667773435
 H         8.7357531515        4.0331394665       -7.5667808333
 H         8.3814913023        2.2819206514       -8.0318378965
 H         8.3114496242        3.4474471341       -9.1871825788
 H         4.1581670957        3.5682483849       -4.6170832465
 H         4.1709775544        1.8561027034       -4.6846877140
 H         5.1463048373        2.5884380144        0.6799611419
 H         4.6927168496        0.8606855070        0.8137049076
 H         5.4396248027        4.7110961097       -0.8314477170
 H         3.8447977942        4.3182944182       -0.2232490971
 H         3.9240016335        5.4076248569       -1.5317266851
 H         2.1441065402        2.8568175180       -3.3670090665
 H         1.8552267871        3.4367228852       -1.5501018999
 H         2.5526796368        4.5208592355       -2.6592014327
 H         6.8080606672        1.7292089477       -1.2279428535
 H         6.0406183531        0.1000098329       -0.9301878824
 H         8.4207072659       -2.9010622590        1.0760677095
 H         6.9199731388       -1.8671735725        1.3463025990
 H         9.1311974159        0.6621931827       -1.5475136396
 H        10.6586197777       -0.0503364720       -0.7154398056
 H         9.9802648528        1.5203380560       -0.2803369420
 H        10.0804689177       -1.2138478057        1.6758923520
 H         9.5599537816        0.2112134462        2.3933673417
 H         8.4687621029       -1.0974101708        2.3813831036
 H         7.2331745490       -4.2878436475       -0.7415683457
 H         6.2866863334       -4.2561521584        0.7285977838
 H         2.0549185576       -4.8570562576       -2.1417347753
 H         2.7051349685       -4.6840455326       -0.5243959784
 H         5.5133108664       -3.3149858749       -4.1070102092
 H         6.4252637787       -2.4350143429       -2.8966415162
 H         4.9008082516       -1.7603320011       -3.4018287997
 H         4.9924803048       -5.6989435340       -1.4916460480
 H         4.5380759698       -5.4326769034       -3.2430484743
 H         6.1842924756       -5.1746706181       -2.6509876291
 H         0.2803968414       -4.2016678367       -1.2967961285
 H         0.7524544622       -2.6532233576       -1.8851663192
 H        -3.4671687470       -2.6935972453       -0.4124342804
 H        -2.8747481973       -4.2529366684       -0.0772764647
 H        -0.5846254684       -5.2542797540       -0.1733106320
 H        -1.6783542438       -5.4907253645        1.3521752491
 H         0.1686327417       -5.5221733590        1.4541285817
 H        -0.5460451445       -2.1138370112        2.7876581237
 H        -1.0962507049       -3.7152011543        3.4867504627
 H         0.6301468085       -3.2488533449        3.0952706328
 H        -3.5359040194       -4.1216095183        2.2941730335
 H        -4.0637559999       -2.5077266189        2.1231089659
 H        -6.0601724798       -2.6707658105        3.9567435326
 H        -6.8532046534       -1.8842456234        2.4962646843
 H        -6.9682262378       -5.2336967561       -0.0925509057
 H        -8.1055089980       -5.5213393145        0.9640660477
 H        -6.7984085721       -6.6320501017        0.9912118362
 H        -6.0720909407       -5.7869766866        3.8361834152
 H        -5.0939201068       -6.5514000221        2.5933044716
 H        -4.6015192799       -4.9802454442        3.4895395598
 H        -8.2355344052       -2.6582415319        5.2336118182
 H        -9.0391913732       -1.7811354812        3.9067708146
 H        -7.9027152508        1.4977995074        3.6741217951
 H        -9.5293472461        0.5911333285        3.3768115930
 H        -8.3154184395       -1.4507761617        7.2320473595
 H        -9.9752229218       -1.0808689917        6.5626381703
 H        -9.4065056996       -0.4467746775        8.0342070953
 H        -6.7121553672        1.5365680883        6.2670255318
 H        -7.6589375273        1.7987084653        7.7030994171
 H        -6.6878601777        0.3905888236        7.4003191198
 H       -10.1725447637        3.2783192996        4.3210601818
 H        -8.8011216871        3.5364382075        3.2220751420
 H        -8.9917921511        5.1636604023        0.0116851467
 H        -9.9867069893        6.4428151388        0.2832174809
 H        -8.1856430575        6.5101188585        1.0217585615
 H       -11.6479393522        5.2609262980       -0.0278276852
 H       -12.4202339873        3.7298023460        0.2490753529
 H       -10.8272356503        3.8686694600       -0.4658479832
 H       -12.8832312121        3.9339814617        2.6542519167
 H       -11.7638507824        4.9322319878        3.5707768580
 H       -12.4577997033        5.5130241038        2.0682177454
 Na        3.0017556807       -1.1125130468       -0.2084352470
