155

 C         6.0742130446        5.9132416430       -8.9793680985
 C         6.1576298734        5.0110213771       -7.8404704681
 C         6.4743218903        3.5004323630       -8.1561594720
 C         5.7908923560        2.4990077422       -7.0070525500
 C         6.2524837849        2.7579010299       -5.5129449133
 C         5.8386726898        3.1009539217       -9.6051666488
 C         7.9862962806        3.2448155640       -8.0111459377
 O         5.9203271782        5.3605888368       -6.7121801137
 O         4.9537239749        1.6876657525       -7.2053652029
 C         5.0304579345        2.6193244213       -4.6402881717
 C         5.2316356528        3.1250139581       -3.0200878505
 C         4.0775281252        3.1631052020       -1.9089858816
 C         4.0184024467        1.9194479672       -1.0656612529
 C         5.1268585362        1.7252354107       -0.0761799238
 O         6.3535725082        3.1999826426       -2.6123400424
 O         3.0834594688        1.1340379930       -1.2182204975
 C         4.5449472764        4.4572246310       -0.9707285193
 C         2.5682150454        3.3530373728       -2.6949414473
 C         6.5111340167        1.1627469904       -0.6080961181
 C         7.2807718159        0.6374707747        0.5598576986
 C         8.5903111190       -0.2433291621        0.1970415657
 C         7.9352943591       -1.5002490115       -0.3210919652
 C         7.5876485854       -2.7437409426        0.5037674099
 C         9.3652865696        0.5832476862       -0.7460798094
 C         9.4277387009       -0.4270929500        1.4453949818
 O         6.8962120925        0.7818797051        1.6983554264
 O         7.7098679387       -1.7275365993       -1.5591670150
 C         6.7485590782       -3.6585487072       -0.3843048443
 C         5.4026559529       -2.9949277108       -0.8114910217
 C         4.6098001756       -3.5506425596       -2.1302226851
 C         3.2173453147       -3.1126793181       -2.1648772260
 C         2.2800246991       -4.0905649950       -1.5011918472
 O         4.9683985911       -2.1322375051       -0.0714378124
 O         2.8353853028       -2.0236006167       -2.5624731777
 C         5.4277891621       -3.1190193430       -3.4148764108
 C         4.7148581312       -5.0764882503       -1.8989112959
 C         0.7883015300       -3.6777896445       -1.2638848574
 C         0.7030224759       -3.0372584499        0.2174145857
 C        -0.6455842701       -3.4554613068        1.1427327672
 C        -1.8639102846       -2.6290513995        0.5673102979
 C        -3.3231036252       -3.2576957362        0.3390515996
 C        -0.9712554228       -5.1080505191        1.2020854202
 C        -0.3366664728       -3.1476477826        2.6453829594
 O         1.5384167764       -2.4116655592        0.7916318364
 O        -1.6150206475       -1.4443025529        0.4934109058
 C        -4.0045535942       -3.2312471293        1.8269332508
 C        -5.4435029846       -3.4282347964        1.4940309472
 C        -6.4239671309       -4.5018415011        2.1629879701
 C        -7.4727328163       -3.6410458039        2.9506754681
 C        -6.9990170668       -2.4118604988        3.5939629183
 O        -5.9292946709       -2.7015459612        0.6948486134
 O        -8.5404301226       -4.1778418314        3.0743842951
 C        -7.3167215315       -5.1990786900        1.0222032127
 C        -5.9896268208       -5.6806127205        3.0499690404
 C        -7.7091517227       -1.9257605024        4.8170477924
 C        -7.2287239060       -0.5498366775        5.1713534667
 C        -8.1732539077        0.2491457633        6.2166839471
 C        -9.1730776078        1.0440955914        5.4157767208
 C        -9.2084172388        1.4131934598        3.9314892648
 C        -8.9632031964       -0.6516805283        7.2350440201
 C        -7.1211832568        1.0213107762        6.9939914971
 O        -6.2032310721       -0.1818388472        4.6095292183
 O       -10.2185278293        1.4110029203        5.9781174701
 C        -9.5823870629        2.8711184751        3.5430894850
 C       -10.3560267649        2.8922212276        2.2535006378
 C       -11.0096150188        4.3002414303        1.7240621721
 C        -9.9246506073        5.4259846323        1.7310584477
 C        -8.7411443578        5.4898588923        0.6050033393
 O       -10.4922548025        1.9605023680        1.5210485385
 O        -9.7467316246        6.0501520682        2.7403572049
 C       -11.6494032554        4.1075537603        0.3052680675
 C       -12.0407453241        4.4652338610        2.8669014025
 H         7.0465770516        6.3516680640       -9.2534530465
 H         5.7462052900        5.4897061888       -9.9092558678
 H         5.5007895647        6.8022863027       -8.5153395634
 H         7.1359303500        2.1047541535       -5.4883214234
 H         6.6981293873        3.7891558505       -5.3198688460
 H         6.0133014796        2.0139545812       -9.9359357060
 H         6.3180610146        3.7493170817      -10.3604870359
 H         4.7789580819        3.2268339895       -9.6052344605
 H         8.3659862780        3.7315454304       -7.1210358634
 H         8.1277216134        2.1662003435       -7.7000588743
 H         8.6391471812        3.4960439443       -8.9004454274
 H         4.2141967465        3.1662885313       -5.0419825546
 H         4.6482268770        1.6190240848       -4.4588908187
 H         5.2094614300        2.6583786497        0.5815249861
 H         4.8537478495        0.9710781394        0.5439428091
 H         5.6354317604        4.4487296692       -0.9412242981
 H         4.3432955191        4.4307152019        0.1140532254
 H         4.2862605377        5.4655951538       -1.4291203406
 H         1.9192788975        2.7584626451       -2.1178927533
 H         2.3044116456        4.3740327970       -2.4812187612
 H         2.4747062102        3.1456419438       -3.7978350867
 H         7.0316624265        2.0135600750       -1.0525114846
 H         6.6655368916        0.2996842210       -1.2451247618
 H         8.3637372273       -3.3437884305        0.9813923763
 H         7.0278238565       -2.3881846481        1.3342642525
 H         8.7912775412        0.8352256613       -1.6231543352
 H        10.2511479575        0.0606165853       -0.9221053253
 H         9.6924962691        1.5587981998       -0.2994721465
 H        10.3262196361       -1.0469033783        1.3770390615
 H         9.9512528327        0.5133085719        1.6475966200
 H         8.8650786247       -0.7092562400        2.3569560785
 H         7.2587530349       -4.1102185519       -1.2382049692
 H         6.5374503213       -4.5521044690        0.2609772767
 H         2.3576768788       -5.0000007535       -2.2737506377
 H         2.7271024189       -4.3539603007       -0.6032203594
 H         5.4955711880       -3.9473874672       -4.1395298755
 H         6.4536334253       -2.7023205007       -3.1875641609
 H         4.7662600731       -2.3334833653       -3.7596655016
 H         4.4697962152       -5.4397100124       -0.9649838719
 H         4.1591621841       -5.6584715381       -2.7338452041
 H         5.7578736980       -5.5023711017       -2.0384724241
 H         0.0226680632       -4.4969400036       -1.4166390722
 H         0.5172506792       -2.9346972613       -1.9781318081
 H        -4.0413262168       -2.6863119840       -0.4201416620
 H        -3.2658020454       -4.3231772284       -0.0049669974
 H        -1.1188824066       -5.3945721323        0.1845436077
 H        -1.7881399537       -5.3032368810        1.8878156853
 H        -0.1368407260       -5.8054576001        1.5917307728
 H         0.0875436509       -2.1533532600        2.7925096210
 H        -1.3263470176       -3.2682481473        3.1374617840
 H         0.3753968330       -3.8796562954        2.9671170258
 H        -3.7413426024       -4.0285230052        2.5060181842
 H        -3.8262135018       -2.2716026687        2.3423468518
 H        -5.9945166731       -2.7398084946        4.0510233718
 H        -7.0184945394       -1.6338023655        2.8810473494
 H        -7.5335109670       -4.6098128758        0.0984465378
 H        -8.3643675865       -5.4105591778        1.4019141539
 H        -6.7492255338       -6.1282204415        0.6740125972
 H        -6.7266944072       -6.5393398442        3.0145216156
 H        -5.0955293467       -6.0479495026        2.6750011479
 H        -5.8777637372       -5.3623186961        4.1202457809
 H        -7.5843534661       -2.5999502952        5.6255019701
 H        -8.7086333356       -1.8966945997        4.5640035958
 H        -8.1881869035        1.3744765868        3.6221207332
 H        -9.8959276752        0.7062025078        3.4747962688
 H        -8.3356684054       -1.3395726414        7.7869135642
 H        -9.8700333556       -1.1461928793        6.7966353567
 H        -9.5025067735       -0.0950753236        7.9503326827
 H        -6.5045850154        1.7348681421        6.2936226341
 H        -7.6976185208        1.3898638021        7.8827758685
 H        -6.5303320615        0.1107592436        7.4392077905
 H       -10.0507163791        3.3600373400        4.3533932235
 H        -8.7066142549        3.4316428621        3.5124412927
 H        -8.3686576042        4.4539945407        0.7691190942
 H        -8.8863742188        5.7066688160       -0.4772922180
 H        -8.0411094221        6.1736642638        0.9949756732
 H       -12.6111613253        4.6720228014        0.1092337287
 H       -11.8793911554        3.0443071878        0.2513517595
 H       -10.8820652490        4.4524341216       -0.4659716000
 H       -12.6160725816        3.5397047933        2.8487304424
 H       -11.5062399123        4.5572496997        3.8648502629
 H       -12.6555494503        5.4225142797        2.9074500393
 Na        3.0118990908       -0.9047281993       -0.2649186154
