155

 C         6.2171619906        5.9936340143       -9.1832107904
 C         6.4395981866        5.1372993332       -8.0344584121
 C         6.5808145399        3.6492052629       -8.2256530094
 C         5.9089273944        2.7602796192       -6.9522604366
 C         6.1389328473        3.0574701295       -5.4105375400
 C         5.8766197703        3.2887842088       -9.5126055321
 C         8.0847936617        3.2987655027       -8.2829666556
 O         6.4561159854        5.5470160989       -6.8498509147
 O         5.0894767499        1.8881645109       -7.1921785746
 C         4.9848987005        2.3805623086       -4.5581947138
 C         5.1604936825        3.1298197476       -3.1666877723
 C         4.0234601803        3.2753134687       -2.1527658752
 C         4.0378031039        2.0272530597       -1.2190552442
 C         5.0143501908        1.8019630893       -0.0321560824
 O         6.2793476162        3.4439776318       -2.8386388669
 O         3.0203726564        1.3661829895       -1.3760147660
 C         4.5604573867        4.4385584866       -1.3401429435
 C         2.6901758413        3.7221916468       -2.6909427285
 C         6.3610012274        1.2297088220       -0.6147540687
 C         7.3587911880        0.5919572900        0.4235568577
 C         8.6325088176       -0.2645881404       -0.2975165355
 C         8.0932620565       -1.7094422754       -0.8394585712
 C         7.5851082883       -2.7341171845        0.1104963989
 C         9.5449247835        0.7291449865       -1.2103654352
 C         9.5121086446       -0.6464566266        0.8559874988
 O         7.2279582343        0.6674538171        1.6139064403
 O         7.9777324327       -1.9895785479       -2.0452183514
 C         6.6895031284       -3.8756790287       -0.2423299255
 C         5.2034734653       -3.4024986988       -0.7375514973
 C         4.4372228131       -4.1888931139       -1.8325568991
 C         2.9537348545       -3.5959384025       -1.8571421547
 C         1.6936708918       -4.3354133393       -1.8729579873
 O         4.8962573157       -2.2961803690       -0.3967596502
 O         2.8567620658       -2.4137533364       -2.1032545263
 C         5.1728073612       -3.5492617967       -3.1061322039
 C         4.4942138847       -5.6665935707       -1.7736096630
 C         0.5357986042       -3.5569842950       -1.2809487490
 C         0.7210220848       -3.1061832892        0.1387510999
 C        -0.4985653874       -3.5522629142        1.0527928768
 C        -1.9066684395       -2.4894445982        0.3600478885
 C        -3.3718941376       -2.9231858012        0.3980394894
 C        -0.8778883046       -5.0282066517        1.1503511117
 C        -0.3382865950       -2.9524485482        2.6044004134
 O         1.6162627183       -2.4302585335        0.6142346233
 O        -1.6259071093       -1.3496956774       -0.0241047041
 C        -4.0199957652       -3.4439636033        1.7837375042
 C        -5.5846970761       -3.1829790372        1.6295637373
 C        -6.7015871932       -4.3385843577        1.9585242781
 C        -7.7087654996       -3.6610669844        3.0565408482
 C        -6.9860102426       -2.5673421905        4.0327906774
 O        -5.9346484227       -2.1760094466        1.1465539014
 O        -8.8626546009       -3.9014659723        2.9435568926
 C        -7.4689259167       -4.6414752451        0.6904983001
 C        -6.2493984715       -5.7003647258        2.7819136528
 C        -7.6063983191       -2.1033612542        5.3765252876
 C        -7.2217698915       -0.5141223025        5.6805404741
 C        -7.9241918375        0.4554976056        6.6055115052
 C        -9.0615834742        1.2455298532        5.7796196152
 C        -8.8672175470        1.5885982772        4.2634634221
 C        -8.6223181121       -0.2521289834        7.7766908899
 C        -6.9842079237        1.5661303243        7.1329808608
 O        -6.2659168924       -0.0783267375        5.0652111214
 O       -10.1570498914        1.3945872216        6.2522534245
 C        -9.5533732409        2.9281021899        3.9172137543
 C       -10.4579979202        2.6964860958        2.6432481927
 C       -10.9544936375        4.1060773618        2.0488272536
 C        -9.7586600825        4.9967057224        1.6704090597
 C        -8.4683225132        4.4522511826        0.9393386043
 O       -10.6323212011        1.6232005658        2.0733234907
 O        -9.8885610183        6.1225886351        2.0733801027
 C       -11.7686764222        3.8257100172        0.8275227359
 C       -11.7901726304        4.8291916866        3.1697453301
 H         6.9409076755        5.8348855455       -9.9690510959
 H         5.4242137181        5.7101093831       -9.7385841236
 H         6.4206087526        6.9456815344       -8.7846660378
 H         7.1123454152        2.6259768918       -5.0862282802
 H         6.0916239092        4.2063381779       -5.3930710576
 H         5.8263047841        2.2035300666       -9.7005950186
 H         6.3018077313        3.8155805530      -10.2985433512
 H         4.8531941542        3.5389363286       -9.3947476560
 H         8.6756735879        3.3309666915       -7.3856175785
 H         8.0087905020        2.2227662741       -8.3657996612
 H         8.6815651839        3.8527076416       -8.9556775446
 H         4.0209840548        2.7272578830       -4.8580146607
 H         5.0270976879        1.2965807709       -4.7033033856
 H         5.2132001353        2.8250249586        0.4802755382
 H         4.6402330600        1.1165750532        0.7431505445
 H         5.5275388518        4.2218322573       -0.8000224919
 H         3.9790691724        4.7761549972       -0.5062498221
 H         5.0483401011        5.2112045079       -2.0462870363
 H         1.9157543352        3.7646389363       -1.9732375343
 H         2.6735381850        4.8546968859       -2.7602413686
 H         2.4653711752        3.1938279074       -3.6334749309
 H         6.9706476413        1.9625578860       -1.0619848830
 H         6.2766293620        0.5180567595       -1.4077642704
 H         8.3185565072       -3.0508875419        0.8918224710
 H         6.9342065639       -2.2017709575        0.7927277433
 H         8.8019324849        1.2465082715       -1.8913690767
 H        10.2901607633        0.1888723190       -1.8410363075
 H         9.9599207923        1.4874538544       -0.6111661664
 H        10.5080641699       -1.0863803660        0.6718357073
 H         9.7644833215        0.2502444060        1.3803284799
 H         8.9588011419       -1.2752627974        1.6205853963
 H         7.1063346970       -4.5186819974       -1.1223862450
 H         6.6431804500       -4.7138581227        0.5636487950
 H         1.5576739543       -4.4664708594       -3.0076674420
 H         1.8055584413       -5.2712553834       -1.3256708139
 H         4.5815639262       -3.5993088257       -4.0155270193
 H         6.0325599245       -4.1198250198       -3.3112578332
 H         5.3314832230       -2.5270676932       -2.8581225919
 H         4.3130732265       -6.1394491417       -0.8486440611
 H         3.8643082600       -6.2509684873       -2.5357487903
 H         5.5033135410       -6.0512257886       -2.0281504555
 H        -0.4305569525       -4.0736455653       -1.4658070510
 H         0.4142668674       -2.6773588076       -1.8375629638
 H        -3.9441600514       -1.9506644542        0.1471163149
 H        -3.5681738766       -3.7891650289       -0.3566988610
 H        -0.8610737895       -5.4670166907        0.2308084453
 H        -1.7767095352       -5.1745531012        1.7619583213
 H        -0.1094214071       -5.6901919803        1.5915818675
 H        -0.4667735227       -1.8454921750        2.6396581465
 H        -1.0872192619       -3.3782996979        3.2664391426
 H         0.6208632106       -3.2936252892        2.9288553826
 H        -3.7818430109       -4.4753860960        1.9834765872
 H        -3.6176375817       -2.8374102153        2.6001380046
 H        -5.9134089242       -2.7996318222        4.3334457425
 H        -6.8618303791       -1.6974014201        3.4089643876
 H        -8.1915870070       -3.8248853148        0.5314257660
 H        -7.9014712290       -5.6016797921        0.7142622040
 H        -6.9784190753       -4.5326576894       -0.2266442936
 H        -6.9811604435       -5.7470238257        3.6133860594
 H        -6.4861341992       -6.5900161151        2.1888097256
 H        -5.2456000965       -5.5683290818        3.2177927303
 H        -7.2097933543       -2.7494921993        6.0969538919
 H        -8.6467548712       -2.1864586233        5.2150558068
 H        -7.7994166820        1.6273965242        4.1329840449
 H        -9.4388023945        0.8419578838        3.6514304923
 H        -8.0599070893       -0.5104367007        8.5815219649
 H        -9.0366075568       -1.2863625423        7.3794511559
 H        -9.5369536156        0.3630620041        8.1156694985
 H        -6.7011447810        2.0301691845        6.2211792003
 H        -7.5023282479        2.0290911099        7.9628694515
 H        -6.1851106756        1.0278068985        7.6504117607
 H       -10.2988728000        3.1342420072        4.7293039139
 H        -8.8913656511        3.7296842610        3.9569464302
 H        -8.2145308259        3.5849594441        1.5252174509
 H        -8.5955363593        4.1239576172       -0.1294161648
 H        -7.7784090950        5.2241814171        0.7951676371
 H       -12.6677999198        3.3498666440        1.1586526865
 H       -11.3047443312        3.1524999275        0.2212209910
 H       -12.0042425082        4.7591268588        0.2663787178
 H       -12.6868671174        4.3293703580        3.2492463200
 H       -11.2839682976        4.8535372189        4.1460811637
 H       -12.0263926192        5.8703334014        2.9963547883
 Na        2.7622033450       -1.0572020804       -0.5584149399
