155

 C         6.3794626088        6.1241218060       -9.3495120110
 C         6.5170467854        5.1984978434       -8.1710360344
 C         6.5048620923        3.7051706694       -8.2601223281
 C         5.7545771456        2.9465315985       -7.0254058864
 C         6.2192337316        3.1553853828       -5.6026091403
 C         6.0236232096        3.2444289514       -9.6380634221
 C         8.0345042343        3.2292544016       -7.9378181368
 O         6.9192996074        5.6402727221       -7.0460648362
 O         4.7820343880        2.1856756774       -7.2181380846
 C         5.0637584152        3.0959368136       -4.5719573818
 C         5.4212680729        3.3268969470       -3.0495256645
 C         4.1270134374        3.3524411578       -2.0762390002
 C         4.0978820886        1.9401086781       -1.3206562836
 C         5.3308305190        1.7880939875       -0.4044438315
 O         6.6080313424        3.3942714035       -2.6862227208
 O         3.2744789152        1.1024059873       -1.7428023884
 C         4.4280565643        4.5030184322       -1.0553909872
 C         2.8796240455        3.5281533259       -2.8920935225
 C         6.3875327843        0.8318803159       -0.9729866419
 C         7.3971271622        0.3104245264       -0.0037904415
 C         8.6556385164       -0.4570776676       -0.6082885567
 C         7.8762439383       -1.7186353335       -1.0136509760
 C         7.4043980347       -2.6958498572       -0.0220767917
 C         9.3225111768        0.2282909123       -1.7855191696
 C         9.7356172278       -0.4109385039        0.4862450710
 O         7.3702735198        0.3601345907        1.1598557824
 O         7.5292448067       -1.9405348427       -2.1519548682
 C         6.5631882665       -3.8210265305       -0.5381075804
 C         5.0402324641       -3.4608924689       -0.9825488086
 C         4.3039740757       -4.3816096390       -2.0124817658
 C         2.8781328659       -3.6855317067       -2.0939253175
 C         1.7784825642       -4.3631560974       -1.4487035869
 O         4.4356089377       -2.6562039994       -0.3315127926
 O         2.6740157413       -2.6626405771       -2.7233220262
 C         4.9615619956       -4.4866551783       -3.4117116068
 C         4.2726511407       -5.7199820359       -1.2257685897
 C         0.5148779942       -3.5774073115       -1.1590759748
 C         0.4506394689       -2.9510764385        0.1541489566
 C        -0.7107684045       -3.3886610471        0.9820590225
 C        -1.9215673950       -2.5649238029        0.2419430526
 C        -3.3656218928       -3.0260760606        0.1393546612
 C        -1.0275195504       -4.8380172493        1.0138525403
 C        -0.7339700390       -2.9387254075        2.4841269307
 O         1.2639075476       -2.1398228493        0.5773870387
 O        -1.6041908286       -1.5336435090       -0.3610393309
 C        -4.1034436326       -3.7275590763        1.3451136030
 C        -5.6054587076       -2.9883780537        1.4859221693
 C        -6.7095953236       -3.8115326020        1.9980925286
 C        -7.5372775127       -3.1646437743        3.3365501833
 C        -6.8553465754       -2.5335533501        4.5158323168
 O        -5.8254856396       -1.8047764544        1.3322896362
 O        -8.6898743275       -3.6188536878        3.4184372835
 C        -7.7866983004       -4.0010356353        0.8872047612
 C        -6.2672635226       -5.2004970082        2.6612878576
 C        -7.7894946773       -1.4768525707        5.0570845444
 C        -7.0483580978       -0.4424720443        5.9125383612
 C        -7.8327002528        0.5853740523        6.9895697464
 C        -9.1237532089        1.2049373133        6.2461464352
 C        -8.7893037572        1.9604118101        4.8735933450
 C        -8.2807374993       -0.4028278928        8.1496069662
 C        -6.7401932165        1.7367283128        7.4747417530
 O        -5.8647733872       -0.3355609983        5.7177834972
 O       -10.2616726389        1.0345104748        6.5863497393
 C        -9.8489443225        3.0511440547        4.5129142360
 C       -10.5313739336        2.7459625649        3.1813128125
 C       -10.9731057256        3.9603387164        2.3515896676
 C        -9.6452323600        4.5568367070        1.6840979148
 C        -8.4600423434        3.6332915281        1.2349566656
 O       -10.4202232389        1.6452822629        2.6679153409
 O        -9.8213509279        5.6494809685        1.1829584396
 C       -11.8527199281        3.5706929833        1.1123796905
 C       -11.6087964884        5.1352876612        3.1706835403
 H         6.3321774047        5.4940920537      -10.2381452813
 H         5.4209801685        6.5502936430       -9.4541167712
 H         7.2694307936        6.6840613363       -9.3880039386
 H         6.7073068726        2.1872972449       -5.5080347705
 H         6.8617357386        4.0718950736       -5.5300592978
 H         5.5497698311        2.2489350253       -9.6716039356
 H         6.8615358973        3.1676361966      -10.2611969127
 H         5.3271393676        3.9799065272      -10.0581334409
 H         8.4191143436        3.6128270048       -6.9619207910
 H         8.1527358569        2.1136431273       -7.9803226346
 H         8.7155579276        3.6290074088       -8.6433671676
 H         4.4359342315        3.9263547514       -4.8071016178
 H         4.4845988561        2.1605369664       -4.5232120654
 H         5.7160816039        2.7729496399       -0.2646614685
 H         4.8629550543        1.5702357817        0.6586746357
 H         5.5786577666        4.5546325339       -0.8836574342
 H         3.9114060263        4.5532514511       -0.0931381947
 H         4.2669001336        5.5871656670       -1.3755817256
 H         2.7742952918        3.1114295251       -3.9141796809
 H         2.0193177733        2.9711369477       -2.3664795580
 H         2.5960160791        4.5839582464       -3.1672685575
 H         6.8874254153        0.9724945348       -1.8836841167
 H         5.7935161636       -0.0358152957       -1.2159792287
 H         8.2459906838       -3.1595070392        0.5715788092
 H         6.9936145552       -2.2335488910        0.8493082161
 H         8.8728750196       -0.1156089333       -2.7541363013
 H        10.3337873916       -0.2627917998       -1.9632512618
 H         9.4073124367        1.2519387707       -1.6881227993
 H        10.1861096389       -1.3901262968        0.6640333669
 H        10.4329033550        0.3137442453        0.2164143225
 H         9.4061650086       -0.0700451879        1.4857345269
 H         7.0400423057       -4.1960324300       -1.5525949933
 H         6.5369817769       -4.8088618886        0.0760426526
 H         1.4980859716       -5.2366103939       -2.0383043245
 H         2.2121161893       -4.7157188135       -0.4194765294
 H         4.6688472431       -5.4277785002       -3.9247140326
 H         6.0010960276       -4.4355340153       -3.3941943788
 H         4.5078661776       -3.6822836832       -3.9947652744
 H         4.0624531260       -5.5589019406       -0.1337718442
 H         3.4692324030       -6.4569038784       -1.3370362689
 H         5.1786693860       -6.2821439210       -1.2329839776
 H        -0.3958102487       -4.1099672609       -1.5006391189
 H         0.6241076443       -2.8021998052       -1.8784286082
 H        -4.0204122620       -2.1533725232       -0.1090353835
 H        -3.4108244349       -3.7545082514       -0.7718595238
 H        -1.3812528454       -5.3550942242        0.1561565889
 H        -1.9006990480       -4.9417660851        1.6900403371
 H        -0.2101896255       -5.4651707004        1.3677095897
 H        -0.4965547364       -1.8543592729        2.4265257418
 H        -1.7015579780       -2.9351031377        2.9378870498
 H         0.0272582716       -3.4518999217        3.0663457545
 H        -4.1002637199       -4.7807875398        1.2440392124
 H        -3.5034677621       -3.4388826694        2.1906597335
 H        -6.5903390414       -3.2337903871        5.3139699670
 H        -5.8739677361       -2.1307921543        4.4193650107
 H        -7.6046413896       -3.4923374977       -0.0479538090
 H        -8.7319790563       -4.0145165538        1.2626987153
 H        -7.7711572678       -4.9909510058        0.5921054895
 H        -5.3334703889       -5.0501343021        3.1481776262
 H        -7.0610991076       -5.5002283313        3.4427933423
 H        -6.2718510233       -5.9054609697        1.8534331216
 H        -8.5731033624       -1.8829262089        5.6178911005
 H        -8.1206487094       -0.8379385817        4.1720756863
 H        -7.8291183189        2.4024358608        5.0719562947
 H        -8.7815548403        1.1900757723        4.0427772016
 H        -7.6973149475       -1.2813848859        8.3991924813
 H        -9.2766695982       -0.7871019098        8.0719238154
 H        -8.0328945629        0.3547061578        8.9912689743
 H        -6.1665926607        2.0494944577        6.6848068792
 H        -7.4155072177        2.4489211957        7.8739980872
 H        -6.1544496880        1.3353556692        8.2050453633
 H       -10.6845411754        2.8991243054        5.3356803619
 H        -9.4044001826        3.9954258157        4.6874578857
 H        -8.1748766336        2.9571136314        1.9501133829
 H        -8.9327139125        2.9329287418        0.4938217494
 H        -7.8471362133        4.1879363626        0.5610728296
 H       -11.3368672031        2.9690755041        0.4200725239
 H       -12.1888199902        4.4830117033        0.7241468094
 H       -12.7590427380        3.0285514532        1.3987182608
 H       -12.0765512659        4.8353549637        4.0702805022
 H       -10.7931372241        5.7818993871        3.5127614251
 H       -12.3643268098        5.6732691149        2.6947536458
 Na        3.0221733569       -0.8481839439       -0.5491219539
