155

 C         6.4472338018        5.9841793427       -9.3806756176
 C         6.8234198358        5.0775701763       -8.2189444136
 C         6.8665480174        3.4814772280       -8.2915240213
 C         5.7709725463        3.2856723399       -7.0114947058
 C         6.1374746154        3.5659376412       -5.5314379641
 C         6.1432931133        2.9961413163       -9.6897118905
 C         8.3631510043        3.1216394884       -8.2392362455
 O         7.0110106840        5.6170810973       -7.1173641276
 O         4.6151956040        3.0893833938       -7.3117606134
 C         4.9655796835        4.0594805271       -4.6882376649
 C         5.1721609232        3.5467539516       -3.2129099729
 C         3.9760783206        3.2987439033       -2.1528646599
 C         4.2258851629        1.9496309207       -1.5352691106
 C         5.4105728497        1.8122556100       -0.5877251208
 O         6.2824884317        3.4131656931       -2.7373955178
 O         3.3933889243        1.0283930430       -1.6229703690
 C         4.0234212970        4.5078670977       -1.1054231119
 C         2.5823234538        3.3228139294       -2.8085722893
 C         6.1792932444        0.5468372578       -1.0214816574
 C         7.4458884591        0.1558004271       -0.2804073199
 C         8.5662309592       -0.8045330357       -0.9562431758
 C         7.8671312224       -2.2020214817       -1.4183688048
 C         7.7172195212       -3.2626557662       -0.3283946193
 C         9.1511528263       -0.0102725288       -2.1110497634
 C         9.6736701152       -1.0817256425        0.1086184957
 O         7.6193038545        0.4722704282        0.8783385120
 O         7.3692321606       -2.4677542944       -2.4762154132
 C         6.6175162078       -4.3277957243       -0.6943614467
 C         5.2536317322       -3.7171926580       -0.9535461594
 C         4.2787020891       -4.6441188953       -1.7415005941
 C         2.9786692499       -3.9159123137       -1.8101604422
 C         1.6223993302       -4.3948228478       -1.3768754255
 O         5.0665842916       -2.5636995175       -0.6819672412
 O         3.0959669869       -2.8668789032       -2.4865315724
 C         5.0194774632       -4.4426442543       -3.0808390164
 C         4.2010241863       -6.0656393830       -1.2586730156
 C         0.5255357323       -3.3291849938       -1.2845603905
 C         0.2180094801       -2.6664644801        0.0167284115
 C        -1.1958437766       -3.0658354972        0.8096995357
 C        -2.3047942606       -2.2270828896        0.1126390706
 C        -3.8060594843       -2.6767414457        0.1937404816
 C        -1.2710621195       -4.5057755509        0.8438583367
 C        -1.0760838629       -2.3561729547        2.1602579442
 O         1.0744718916       -1.9121456615        0.4658159202
 O        -1.9988872467       -1.3851288296       -0.7152692668
 C        -4.3046374838       -3.7061828387        1.2411477266
 C        -5.6635575987       -3.0837339384        1.7135770847
 C        -6.8273072818       -3.8184351439        2.2291843292
 C        -7.4208389837       -2.8905962731        3.4421559631
 C        -6.6130896670       -2.0642353912        4.5259902270
 O        -5.7387727788       -1.8336108832        1.8070999649
 O        -8.6157513414       -2.8426268854        3.6000944409
 C        -7.8356531997       -3.8558412776        1.0459790587
 C        -6.4768521043       -5.2018457173        2.8484059925
 C        -7.4194667769       -0.7671670297        4.8252047659
 C        -6.7197546184        0.0452512412        6.0441500165
 C        -7.6931948416        0.5077919000        7.2276860224
 C        -8.9231295764        1.2444863594        6.6561854613
 C        -8.7657204318        2.3952164225        5.5895511563
 C        -8.0941066504       -0.4798995288        8.2773149949
 C        -6.7708787736        1.4718649245        8.0685788723
 O        -5.5433667237       -0.2177198973        6.2300086927
 O       -10.0788989004        0.9246467313        6.8976096102
 C       -10.1036860576        2.9638820321        5.0238783252
 C       -10.3597921279        2.6361118419        3.5863695517
 C       -10.8740393735        3.7882834014        2.5885576476
 C        -9.6845844882        4.1014623855        1.5659758147
 C        -8.5406503991        3.0775480706        1.1174136414
 O       -10.1112246101        1.5792557895        3.0697627466
 O        -9.7643333760        5.1394582690        0.8973227542
 C       -12.0331367984        3.3324976900        1.6072673782
 C       -11.2804942632        5.2052278516        3.0449792278
 H         7.3833427481        5.9010587770       -9.9912417649
 H         5.5907217183        5.5552798122       -9.9895794781
 H         6.3840871019        7.0479645231       -9.0810392438
 H         6.3607555541        2.5705944611       -5.2097486589
 H         7.0199035077        4.2392012542       -5.4661150618
 H         6.5105401489        2.0298484395       -9.9986940861
 H         6.4452807003        3.5545231870      -10.5735986996
 H         4.9979518058        3.0760038941       -9.5758861742
 H         8.8005271270        3.8495904164       -7.5174249741
 H         8.5983401747        2.1136081414       -7.8890282601
 H         8.7821447705        3.0594810879       -9.1765286653
 H         5.0557096872        5.1308154420       -4.5595720048
 H         3.9532811399        3.7672312973       -5.0712987737
 H         6.0193008028        2.6879688117       -0.6908049799
 H         5.0811699026        1.8507620034        0.5834172284
 H         4.9542931362        4.4532367467       -0.5585235537
 H         3.2986669325        4.4066999142       -0.2452448304
 H         3.7720940472        5.4846411192       -1.3531348045
 H         2.2959986209        2.3319539775       -3.3034780079
 H         1.9034110281        3.8530188428       -2.1211151996
 H         2.4236456745        4.1005228046       -3.5436518101
 H         6.5630136994        0.5697795357       -2.0305934604
 H         5.6520046349       -0.4312339983       -1.0784144028
 H         8.5948426091       -3.9723299214       -0.1181708906
 H         7.4911482487       -2.9270765544        0.6776477813
 H         8.3337038236        0.2043427517       -2.8060017834
 H        10.0072641048       -0.4658500862       -2.6876860627
 H         9.5852433291        0.9069222730       -1.7652729038
 H        10.5037726674       -1.5199418385       -0.4128040139
 H         9.8767559883       -0.1691377515        0.5913596409
 H         9.3671256766       -1.7764505952        0.8946298340
 H         6.8349742598       -4.9968019403       -1.5926239646
 H         6.5881385309       -4.9961929882        0.2276058553
 H         1.2966276309       -5.1981911222       -1.9844483138
 H         1.5202531095       -4.9298583228       -0.2913106470
 H         4.1943883175       -4.4593481574       -3.8504955896
 H         5.7573996534       -5.1900738006       -3.2062925989
 H         5.6347495396       -3.5155562632       -3.1657146476
 H         3.2555692636       -6.4495176327       -0.7458856519
 H         4.2795286788       -6.8802306337       -1.9060519509
 H         4.9129625975       -6.2518535578       -0.5230205042
 H        -0.4530755462       -3.6666780056       -1.7312096551
 H         0.9331950313       -2.4622608108       -1.8317278801
 H        -4.5007283934       -1.9124381884        0.2971909391
 H        -4.0200174771       -3.1027786203       -0.8172767926
 H        -1.7792159874       -5.0249213874       -0.0067634938
 H        -1.9698951215       -4.9504471876        1.5726973846
 H        -0.3632614647       -4.9058030331        1.2037057596
 H        -1.0560385436       -1.3224521533        1.8155510492
 H        -1.9032391114       -2.5814014791        2.7893844772
 H        -0.2336877190       -2.5670378908        2.8428882606
 H        -4.2886805324       -4.7334024773        0.9118906932
 H        -3.7407162200       -3.6463738464        2.1896092254
 H        -6.5467616646       -2.7009269223        5.4168410921
 H        -5.5529596667       -1.8000096357        4.4280591330
 H        -8.7250881156       -3.1806059385        1.1407934833
 H        -8.2532827323       -4.8514684505        0.8070414501
 H        -7.3477933518       -3.5932671269        0.0523680604
 H        -5.6670562352       -5.0010119149        3.4423465677
 H        -7.3870805221       -5.4963229106        3.4570873816
 H        -6.3714056848       -5.9575639458        2.1257984646
 H        -8.4393961563       -0.9674724904        5.0934423064
 H        -7.5736615188       -0.2203313417        3.7927110073
 H        -8.3315369124        3.1674660016        6.2140635053
 H        -7.9928564143        2.0709725376        4.8471150263
 H        -7.3438082744       -0.3332277767        9.1905621202
 H        -7.8271879023       -1.4347125003        7.9342631646
 H        -9.1582602737       -0.3410732836        8.6429832253
 H        -6.6655309023        2.3424646152        7.5252527478
 H        -7.1519793404        1.6945631669        8.9895646490
 H        -5.9436435917        0.9054292472        7.9657736256
 H       -10.9294293738        2.3223438984        5.6303574933
 H       -10.1802727220        4.0124484731        5.3405577246
 H        -7.6786488034        3.5181076335        1.6053567628
 H        -8.6475492891        2.0212698882        1.3230175943
 H        -8.5969641010        3.2015124654       -0.0069321240
 H       -12.0207411870        4.0031618238        0.7103159157
 H       -13.0100721393        3.5019980289        2.1789701412
 H       -12.0002839165        2.3464778452        1.2022095388
 H       -12.3535556134        5.3353107990        3.3418273449
 H       -10.8076336188        5.4823774445        4.0097442673
 H       -11.1687331595        5.9077841002        2.2230315622
 Na        2.8521361402       -1.1978006248       -1.1784154035
