155

 C         6.4450983572        5.9035481315       -9.7715553520
 C         7.1086519223        5.3603699070       -8.3715570637
 C         6.6788727309        3.8189201301       -7.9812417889
 C         5.5064531162        3.5881982615       -6.9695180401
 C         5.9379540324        3.5269013622       -5.4818506146
 C         6.3164251089        3.0914207281       -9.2356626015
 C         7.9466081376        3.1933209791       -7.5105462135
 O         7.8390036781        6.0883657690       -7.7851123021
 O         4.4011165985        3.4924365128       -7.3252177678
 C         4.7653810793        3.4512520942       -4.6485096116
 C         5.1795275214        3.3635708316       -3.2344729159
 C         3.8743767692        3.1558884618       -2.3235154920
 C         4.0837508193        1.7379780554       -1.6478524864
 C         5.3889338018        1.3540254013       -0.8393008068
 O         6.3136284707        3.5343906326       -2.8763732761
 O         3.1790651477        0.9058626184       -1.5003713796
 C         4.0682765940        4.3233876884       -1.2217281451
 C         2.4663266099        3.2604465760       -3.0008471018
 C         6.1624228982        0.2177022623       -1.5220118989
 C         7.4266986090       -0.1135757733       -0.6465240333
 C         8.5820761045       -1.0717009765       -1.2427251393
 C         7.7664792374       -2.4940746012       -1.4212982017
 C         7.5968861785       -3.5096516966       -0.2030660911
 C         9.1296251199       -0.4016020782       -2.5890181752
 C         9.7605728103       -1.2205048186       -0.2682668760
 O         7.6409100534        0.4841261299        0.4342950536
 O         7.2033269026       -2.6926879676       -2.4732933569
 C         6.5691122882       -4.5095607602       -0.7160612574
 C         5.1483195535       -3.9292987957       -0.9236705922
 C         4.2353006703       -4.7275553509       -1.9191677336
 C         2.8842052188       -3.9292628228       -2.0653427135
 C         1.6391456748       -4.3306932846       -1.3831842515
 O         4.8664154557       -2.8257381261       -0.5078212092
 O         3.0612942132       -2.7812419550       -2.5719475569
 C         4.6798653901       -4.8870014990       -3.3741353223
 C         4.0483435174       -6.0632897621       -1.1579474582
 C         0.3501682119       -3.5343739746       -1.5770513541
 C         0.1290312907       -2.5794118733       -0.3877429649
 C        -1.1561084534       -2.7419295981        0.5556243005
 C        -2.4392670135       -2.2414456197       -0.2955156424
 C        -3.9779640948       -2.5041108226       -0.1013230830
 C        -1.2818747219       -4.2589889241        0.8445234435
 C        -0.8343932294       -1.7511331305        1.8215170267
 O         0.8923536415       -1.6288122833       -0.2195235645
 O        -2.1429745035       -1.5225893919       -1.1944128147
 C        -4.4697431908       -3.2839377458        1.0653420506
 C        -5.6912179319       -2.5121784581        1.7669657979
 C        -6.8138130903       -3.4441580410        2.4529905111
 C        -7.7166882526       -2.5609454751        3.4865132404
 C        -6.7856940038       -1.9253381618        4.6579274925
 O        -5.8119536534       -1.2900972077        1.8487829639
 O        -8.8907786547       -2.4973554692        3.5968669063
 C        -7.6634740833       -3.9638506716        1.3466932559
 C        -6.1149437854       -4.4426234369        3.4124846236
 C        -7.3288913350       -0.5720092927        5.0684941743
 C        -6.6640441689        0.0961654379        6.3456453756
 C        -7.6195506891        0.6834429153        7.5442432625
 C        -8.8138953403        1.2985203719        6.8605392879
 C        -8.6640605044        2.5805621169        6.0288011267
 C        -7.9071965637       -0.7492006621        8.2898363323
 C        -7.0603957333        1.8250567377        8.4893618390
 O        -5.4607542227        0.1161456695        6.3831758288
 O        -9.9152961249        0.8199678430        7.0954634436
 C        -9.8394133114        3.1249553527        5.2863980092
 C        -9.8936050548        2.6261590254        3.8761441752
 C       -10.5976206384        3.5468159115        2.7725221327
 C        -9.7657747566        3.6661861302        1.5578766679
 C        -8.8493520729        2.5108038772        0.9913228784
 O        -9.5656866537        1.5316534740        3.4837188994
 O        -9.6550676304        4.7431715002        1.0447777822
 C       -11.8444693960        2.7200200176        2.5357100161
 C       -10.9484583190        4.9863968551        3.0820821288
 H         7.2784314711        6.5024009866      -10.1275378929
 H         6.2141395274        5.1073366120      -10.5512918749
 H         5.4317505433        6.3878791511       -9.8251704251
 H         6.5036559720        2.6643710652       -5.4017002326
 H         6.5367543715        4.4047307561       -5.2268579202
 H         6.0252926920        2.0681170665       -9.0715626124
 H         7.1183150270        3.3116255989       -9.9827186825
 H         5.4128888255        3.5657367906       -9.7302296411
 H         8.4723528352        3.6042102324       -6.5964256156
 H         7.8285466692        2.1115154895       -7.2549738597
 H         8.6215656488        3.3050037030       -8.3426176721
 H         4.2065073239        4.3890011606       -4.5776012823
 H         4.1563157657        2.5669774262       -5.0388086052
 H         5.9869956994        2.2586317863       -0.5375563060
 H         5.0476406946        0.9633937651        0.2139166317
 H         4.9375025160        4.3005289586       -0.6681560721
 H         3.3352702554        4.4321799275       -0.4146670721
 H         4.1102191739        5.2330057444       -1.7350897696
 H         2.4249604637        2.3673212136       -3.6642089432
 H         1.6711131458        3.4786773613       -2.3027997012
 H         2.4602101912        4.2393255986       -3.4320030705
 H         6.6054946943        0.5809033667       -2.4968617972
 H         5.7040860150       -0.7543784842       -1.7514531054
 H         8.5991305393       -3.9786643640       -0.0105579274
 H         7.1280810378       -3.0236351332        0.6482301029
 H         8.3883985137       -0.4227084715       -3.2918776215
 H        10.0653055784       -0.7826029862       -2.9523129013
 H         9.2617474941        0.7107510860       -2.4606131961
 H        10.2738362860       -2.1317756962       -0.6229903225
 H        10.5464964049       -0.4806652471       -0.4602902651
 H         9.3838755258       -1.3181981069        0.7465321403
 H         6.8699602230       -4.8360886877       -1.6929865078
 H         6.2806424329       -5.3044576483       -0.0334760699
 H         1.3616506202       -5.3244790492       -1.2693861101
 H         2.0162243992       -4.2591282548       -0.2436207988
 H         4.4137908228       -5.9504616148       -3.5631437430
 H         5.7479724364       -4.7242674195       -3.5068996431
 H         4.2590418394       -4.1088269478       -4.0285193299
 H         4.0727276428       -7.0302455454       -1.7223290946
 H         4.7537565762       -6.1905174974       -0.3928655068
 H         3.1108307372       -6.2862525976       -0.6634587484
 H        -0.4669753124       -4.2626305277       -1.5894469412
 H         0.6333442047       -2.9351930899       -2.4615899727
 H        -4.4404262186       -1.6212520193       -0.1799699094
 H        -4.3367296859       -2.9983123406       -0.9829805624
 H        -1.5926773398       -5.1129200525        0.0599585500
 H        -1.6597323598       -4.7188935919        1.7822539507
 H        -0.2272043846       -4.5843437442        0.9360732521
 H        -0.3599254760       -0.8951103234        1.3233969627
 H        -1.6705209421       -1.4312518077        2.4479986760
 H        -0.0450474309       -2.1753157217        2.5271246761
 H        -4.7871555475       -4.3136950104        0.7976079517
 H        -3.5953732386       -3.4690336974        1.7605897771
 H        -6.9378609093       -2.6844781278        5.4324763975
 H        -5.7188421483       -1.9429594094        4.3425299191
 H        -7.5929137105       -5.0203651619        1.0705902931
 H        -7.4310583019       -3.5283609434        0.3135717774
 H        -8.7254031922       -3.5139258742        1.4005547067
 H        -5.7179565167       -3.9457454200        4.2815041728
 H        -6.9251670458       -5.1644881288        3.6592842766
 H        -5.2588806858       -4.8965951935        2.9184679688
 H        -8.3962858680       -0.5904438477        4.7630476539
 H        -6.9479611209        0.1306980411        4.2200675182
 H        -8.2671896368        3.2653620988        6.7381234465
 H        -7.7843591198        2.4531413507        5.3924620236
 H        -6.8959097555       -0.7835120603        8.8331008778
 H        -8.2047426869       -1.6376049609        7.7370353347
 H        -8.7281320895       -0.6603881721        8.9850760377
 H        -6.7688488466        2.7041091143        7.9077312407
 H        -7.9756766882        2.1906513151        8.8833134729
 H        -6.2924027490        1.4058459412        9.2034064305
 H       -10.8371242757        2.7153098101        5.6878759075
 H        -9.8981962292        4.2102451180        5.4296513254
 H        -8.4104463241        1.9651190782        1.8970531575
 H        -9.3605554229        1.8325407142        0.3149955630
 H        -7.9453386550        2.9893951710        0.4135390287
 H       -12.6547251644        3.4815561940        2.3782946533
 H       -12.2558843168        2.0003809401        3.3510176585
 H       -11.7339525450        2.0978434140        1.6866634509
 H       -11.5874498848        5.0112132646        4.0416467877
 H       -10.1322457424        5.6998249162        3.1911055207
 H       -11.4715799222        5.5030953770        2.2729198521
 Na        3.1807455667       -1.2684643815       -0.5921744049
