155

 C         6.4787293085        6.0838436336       -9.8577106506
 C         7.1629570822        5.2899697453       -8.7026354474
 C         6.8659812364        3.7920504538       -8.1842611984
 C         5.6506709221        3.9056101015       -7.0555799939
 C         5.8989627627        3.7957134942       -5.5167412195
 C         6.3644039721        2.9438979295       -9.2956972185
 C         8.1374076814        3.3944521059       -7.5029558427
 O         7.9529623257        5.9184691282       -7.9836940294
 O         4.5121504788        3.9828283288       -7.5596346995
 C         4.6814464882        3.0960912008       -4.7794287052
 C         4.9055017474        3.2259657616       -3.1957654662
 C         3.7883217125        2.9794204482       -2.0537481619
 C         4.0129527632        1.5128107640       -1.4993309036
 C         5.4311742663        1.2929120214       -0.9278388538
 O         6.0908955788        3.3470036895       -2.8486861786
 O         3.1534084284        0.6512246182       -1.5153273967
 C         4.0814822425        4.0603557916       -0.9765422929
 C         2.2985887411        3.1183849542       -2.5647932550
 C         6.3554638551        0.3683929661       -1.6979531655
 C         7.5681287945       -0.0905337899       -0.8440733082
 C         8.5539131911       -1.1561365388       -1.4856467722
 C         7.6565272946       -2.4126662538       -1.6302360484
 C         7.5743077158       -3.3581744073       -0.3670548011
 C         9.0141744730       -0.7949633545       -2.9260753336
 C         9.7368375815       -1.2911921145       -0.3015867167
 O         7.6008808244        0.2759515980        0.2797988906
 O         6.9899751109       -2.6444719895       -2.6303914698
 C         6.6632343038       -4.6183570754       -0.5524208208
 C         5.1918912321       -4.0569876999       -0.8632645089
 C         4.2067458404       -4.8280828093       -1.7768910105
 C         2.8051566758       -3.9228410171       -1.9349892410
 C         1.3937317942       -4.4767369807       -1.6641040231
 O         4.8378502819       -2.9798814827       -0.4145534133
 O         2.8568468207       -2.8461191972       -2.4269211980
 C         4.8549728974       -4.9447136661       -3.2255397363
 C         3.8750863221       -6.2138557405       -1.3542207016
 C         0.2276270038       -3.4051337199       -1.8186333735
 C         0.0350398874       -2.4240008291       -0.5106888161
 C        -1.2997914283       -2.5926559255        0.4524705202
 C        -2.5090254179       -2.2100677914       -0.5384334380
 C        -3.8741105054       -2.2816829667       -0.0905845090
 C        -1.3449827147       -3.9786111570        1.0249122424
 C        -1.2286881200       -1.6431674257        1.7268800889
 O         0.8147806758       -1.5430894317       -0.3155959962
 O        -2.2457914918       -1.6857737449       -1.6235447811
 C        -4.3263921192       -2.8960352287        1.2538028831
 C        -5.5785495292       -2.2014859028        1.8032470790
 C        -6.5490850560       -3.1786291557        2.5789228056
 C        -7.5802121893       -2.3784699229        3.5612920796
 C        -7.0222091541       -1.7642442349        4.9940759185
 O        -5.8451795255       -1.0255642092        1.6099947150
 O        -8.7676630316       -2.4252718360        3.3386353142
 C        -7.4393441406       -3.9110860011        1.5700620968
 C        -5.7215344842       -4.3136953693        3.3637255956
 C        -7.3909215698       -0.2822739848        5.2945846230
 C        -6.6531069931        0.2394956695        6.4953974343
 C        -7.5847654937        0.6210235813        7.7129689949
 C        -8.8683507820        1.2841780451        6.9479393071
 C        -8.5919092612        2.7074275687        6.3608236910
 C        -7.9649682365       -0.6343017319        8.4705932120
 C        -6.7811162530        1.5265838651        8.6795710155
 O        -5.4414406421        0.4695878538        6.4552958042
 O        -9.9758032751        0.8018234798        7.0936618109
 C        -9.6744421172        3.3053432285        5.5228654006
 C        -9.6999158959        2.6895911980        4.0408429854
 C       -10.5304605175        3.2700812622        2.8969814741
 C        -9.7027506814        3.4000814150        1.4243756530
 C        -9.1729456108        2.1340582663        0.7886839979
 O        -9.0016121603        1.7114836147        3.8534487942
 O        -9.4433725952        4.5334102228        1.0349572569
 C       -11.8675606076        2.5565350118        2.6160525383
 C       -11.1034711841        4.6648910848        3.3829029645
 H         6.3414902090        7.0805309215       -9.4066712405
 H         6.9431275732        6.2036960527      -10.7890485523
 H         5.5991801602        5.5411162132      -10.0895831018
 H         6.9191868714        3.2867848349       -5.4013086166
 H         6.0015137531        4.8292124475       -5.1879635585
 H         6.4440628744        1.8563123146       -9.0935606841
 H         6.7320728683        3.3087673500      -10.2075413431
 H         5.3042313480        3.0410527319       -9.4415622097
 H         8.4312862037        4.2370967019       -6.9126957177
 H         8.0928421995        2.6130290618       -6.7819403248
 H         8.9864754292        3.3819505533       -8.1918841303
 H         3.6834556297        3.4543048715       -4.9950947197
 H         4.8198398542        2.0805396294       -4.9669607775
 H         5.7578659453        2.2423535846       -0.7291921482
 H         5.2735326231        0.8825229030        0.0384449110
 H         4.8899310653        3.7959075638       -0.1785189950
 H         3.2784873169        4.1456494085       -0.2429698663
 H         4.5506948084        5.0498673503       -1.3010351772
 H         2.0652143217        2.1644161269       -3.0585316852
 H         1.6121169310        3.1722124698       -1.6234353358
 H         2.1575425469        4.1205815964       -3.0625739022
 H         6.5808933972        0.7758624008       -2.6505799042
 H         5.7376610015       -0.5340201014       -1.8676070850
 H         8.5332588280       -3.7282458155       -0.0503963996
 H         7.0412746692       -2.7243360730        0.3794060565
 H         8.3282560681       -1.1814834914       -3.7854147588
 H         9.9887575248       -1.3432922367       -3.0121635689
 H         9.1264068001        0.2181201955       -3.1710040140
 H        10.6499441983       -1.6568857890       -0.6596828326
 H         9.9855466861       -0.3081583839       -0.0875557626
 H         9.2687126514       -1.7840213604        0.5313199771
 H         6.9936222266       -5.0739645467       -1.5547469393
 H         6.6136867344       -5.3056029756        0.3533235753
 H         1.1071198381       -5.5024491254       -2.1339433495
 H         1.3498661438       -4.8862684836       -0.7020394927
 H         4.7653116483       -5.9322659574       -3.6869078667
 H         5.9136740656       -4.6419565979       -3.2092261346
 H         4.3674032987       -4.0957053144       -3.7062089540
 H         4.3914725601       -6.9953671262       -1.9274732256
 H         3.9757428830       -6.4348746805       -0.2692782819
 H         2.8922473033       -6.5363117905       -1.6344950575
 H        -0.6808183964       -4.0122604166       -1.8090636514
 H         0.4426445260       -2.8043545140       -2.6778106046
 H        -4.1497020971       -1.0951973486       -0.0525326337
 H        -4.6266589189       -2.5447060287       -0.9111327726
 H        -1.5763738330       -4.6459803481        0.2520992379
 H        -2.0615853109       -4.0945849492        1.7839504482
 H        -0.5164922420       -4.5068400753        1.3902457669
 H        -1.1031809646       -0.5967146431        1.4334329736
 H        -2.0712593816       -1.7743227118        2.4276316451
 H        -0.3355714361       -1.9342586923        2.2390321273
 H        -4.5180911190       -3.9480540421        1.2892889817
 H        -3.5659361669       -2.7808072809        1.9744018403
 H        -7.4136171487       -2.4737799844        5.7713177354
 H        -5.9458564759       -1.8306645397        4.8658159599
 H        -6.9561374449       -4.1989984432        0.6232822305
 H        -8.3736878602       -3.5580888921        1.3098598923
 H        -7.7874268842       -4.7340968575        2.1305586911
 H        -4.6773587035       -4.1108765066        3.5542762239
 H        -6.2449918306       -4.3855178642        4.3551658134
 H        -5.7300214133       -5.2394916003        2.8311290687
 H        -8.4270914465       -0.2504183523        5.4512614418
 H        -7.3768378460        0.2458218148        4.3774847673
 H        -8.3161689727        3.3369025521        7.2585740124
 H        -7.5850281181        2.6475655190        5.9434180027
 H        -7.2029704557       -1.3876608621        8.4089800402
 H        -8.9346411059       -0.9269314382        8.2084980122
 H        -8.1764953009       -0.3316522501        9.5200428857
 H        -6.3044330198        2.3917709650        8.2079679589
 H        -7.2857054613        1.6903378004        9.6384871401
 H        -6.0217243338        0.8322935770        8.9080537072
 H       -10.5906187705        3.5080615735        6.0732536716
 H        -9.2470215200        4.3294914918        5.2997634385
 H        -9.0119240064        1.3486044826        1.4655401951
 H        -9.7359802074        1.7815154216       -0.1304733287
 H        -8.1895401850        2.3746685446        0.4793348816
 H       -12.3948804089        2.8179539897        1.7115925455
 H       -12.5299899520        2.7869694508        3.3841953954
 H       -11.7210077945        1.4461666482        2.7612605797
 H       -11.9177333909        4.6452757401        4.0256868837
 H       -10.3328638459        5.3636877307        3.7250123598
 H       -11.3177913066        5.2741263376        2.5022312326
 Na        3.0401090933       -1.3969026057       -0.7234917116
