155

 C         5.9741786374        5.9750234373       -9.3230381001
 C         7.1305040392        5.3668158614       -8.6661248044
 C         6.7438536336        4.0046267361       -7.9827866506
 C         5.6621337402        4.2572241058       -6.8882537901
 C         6.2171711300        4.7081959700       -5.5348996149
 C         6.3702212034        2.7408718535       -8.9694722601
 C         8.0838645839        3.5565271006       -7.2932524200
 O         8.3079348274        5.7530325248       -8.7557700366
 O         4.4296769193        4.2462851958       -7.0584390079
 C         5.0228735885        4.7260800794       -4.4547627062
 C         5.1471298969        3.6087243898       -3.4241199495
 C         3.8872628280        3.0190948567       -2.5995992440
 C         4.2493993322        1.5259604018       -2.0534753654
 C         5.3945108126        1.2243508434       -1.2011027310
 O         6.2341636914        3.0621591774       -3.2287906240
 O         3.4479325905        0.6533220914       -2.3712523008
 C         3.7030942601        3.7022370321       -1.1807168097
 C         2.5880919272        3.1352046389       -3.3569397307
 C         6.2387836198        0.1871391331       -2.2073968070
 C         7.3417143766       -0.5551025225       -1.4034258937
 C         8.1366910470       -1.7292155127       -2.0394858464
 C         7.0895393596       -2.9907816690       -1.9022977280
 C         7.3459638841       -4.0512326278       -0.8456529911
 C         8.2887936962       -1.6019736503       -3.5855137436
 C         9.5585196240       -2.1153627902       -1.4141494366
 O         7.4380967921       -0.3825712637       -0.2025823629
 O         6.2166596077       -3.1682681632       -2.7353240458
 C         6.0766754530       -4.9463137391       -0.5480293197
 C         4.7667055404       -4.2573109379       -1.0384601874
 C         3.7847140843       -5.1493097875       -1.9207905672
 C         2.5079367036       -4.2250589336       -2.2826215030
 C         1.0169893442       -4.4539538065       -1.6719451496
 O         4.3641048417       -3.1974192901       -0.7371260557
 O         2.7034128854       -3.3226606677       -3.0906197155
 C         4.3944617839       -5.8043714381       -3.3273698345
 C         3.4042994287       -6.3939842717       -1.0418649459
 C         0.1201372863       -3.2818855958       -2.0165649524
 C         0.1619454671       -2.2856108962       -0.9160270218
 C        -0.9585388864       -2.3146394403        0.1304179899
 C        -2.3840833209       -2.2672878686       -0.6833338230
 C        -3.6013507985       -1.5455594338       -0.0558998490
 C        -1.0048403895       -3.7267585577        0.9276739989
 C        -0.9897549783       -1.1954852270        1.1423163005
 O         1.0433968044       -1.4490977735       -0.7627002508
 O        -2.4964257852       -2.8342533471       -1.7637365748
 C        -4.3244785612       -2.1934381946        1.1216045974
 C        -5.6937198458       -1.5809855216        1.4992043977
 C        -6.2845597751       -2.4661017519        2.6521503421
 C        -7.2711959344       -1.7045471692        3.7281810298
 C        -6.7293429077       -0.5563235974        4.5978658112
 O        -6.2408001572       -0.6550517718        0.8992064320
 O        -8.3888119534       -2.1946858421        3.9037527763
 C        -7.0762254216       -3.6203254385        2.0779270893
 C        -5.1601980280       -3.1177748269        3.6036457520
 C        -7.5754136742       -0.3546227049        5.8316034177
 C        -6.7916258170        0.3926389124        6.9322102056
 C        -7.6810338303        1.0255357855        8.1500130563
 C        -8.7343913515        2.1200660632        7.5050430561
 C        -8.3064965247        3.6792342411        7.2873238663
 C        -8.5168170528       -0.3127156924        8.5892556985
 C        -6.8778433002        1.5719378473        9.2131650458
 O        -5.5651546664        0.2103894094        7.0114281465
 O        -9.9331007424        1.9104332516        7.5030850463
 C        -9.1805436065        4.1007421336        6.0800939549
 C        -8.8385764411        3.3356750780        4.7679290489
 C       -10.1896520066        2.6575381257        3.8765547282
 C        -9.5590763754        2.1852844029        2.3626333026
 C        -9.4280770570        0.7356538857        2.1240526801
 O        -7.7053301139        2.9931559803        4.5109979780
 O        -9.4484576285        3.1147894785        1.5803350226
 C       -10.6973178428        1.3458612270        4.5337647500
 C       -11.3042785779        3.6733609917        3.4771002679
 H         6.1058126100        6.6442902672      -10.1936540691
 H         5.3522895517        5.1817121248       -9.5938055771
 H         5.5439018314        6.5118606255       -8.5012820530
 H         6.9667028849        3.9271537611       -5.3035329719
 H         6.9297486750        5.5641635974       -5.6993137351
 H         6.7264289332        1.8900862063       -8.3585425064
 H         7.1058402252        2.6039683472       -9.7929608496
 H         5.3634759810        2.6379589852       -9.2995352241
 H         8.6308499656        4.2648440889       -6.7343739907
 H         8.0215443952        2.6097187484       -6.8229342082
 H         8.6226243638        3.1271670160       -8.1928216818
 H         4.9382932431        5.6300942812       -3.9522685275
 H         4.0119446787        4.6266816125       -4.8970470216
 H         5.9656635857        2.0325423963       -0.8050731221
 H         5.1646235146        0.3858432563       -0.4264909294
 H         3.6069636387        2.9943781435       -0.2074357596
 H         2.8981608136        4.4474323787       -1.0906029235
 H         4.4517418036        4.5632871932       -0.9467879106
 H         2.5135186733        2.5472901879       -4.2917012795
 H         1.8593463025        2.8802273142       -2.5519267150
 H         2.3444016402        4.1961789874       -3.7185997758
 H         6.7623927743        0.5677235626       -3.0914810767
 H         5.5870384552       -0.5857522218       -2.4686387494
 H         8.1161496751       -4.6468410528       -1.3809202028
 H         7.8491223922       -3.7317998257        0.0964986715
 H         7.2280147629       -1.3434110200       -4.0271824364
 H         8.6142535272       -2.4922810369       -4.1477781354
 H         8.9963301000       -0.8447823349       -3.8528823990
 H         9.7137245337       -3.1011247977       -1.6985810492
 H        10.2553614286       -1.3232067671       -1.5731247585
 H         9.4089526126       -2.0882276410       -0.3678589255
 H         6.1162649151       -5.9297303294       -0.9145392364
 H         6.0927735509       -5.0963349962        0.4562002819
 H         0.6445621702       -5.4259527504       -1.9127162351
 H         1.2535391738       -4.4742828565       -0.6984325225
 H         3.5977255724       -6.3729329014       -3.7571259539
 H         5.3212034505       -6.4160691094       -3.0416843977
 H         4.5740402559       -4.9626275779       -4.0051464178
 H         3.0416335099       -6.1327659517       -0.0846603989
 H         2.4589283738       -6.8231132535       -1.5370129613
 H         4.1867955170       -7.1774724346       -1.0924391860
 H        -0.8576886890       -3.5821463163       -1.9074290472
 H         0.2400976605       -2.8329993482       -3.0304492855
 H        -3.2277683481       -0.5763421447        0.1562668515
 H        -4.2666717605       -1.4934356666       -0.8524507291
 H        -1.3484625242       -4.5108215571        0.3796626554
 H        -1.8129365414       -3.7962814880        1.5977955940
 H        -0.1603614843       -3.9177864590        1.5369613882
 H         0.0048069140       -0.6716389063        1.2174895038
 H        -1.6937619413       -0.3933030753        0.8060890409
 H        -1.2719703618       -1.5728542504        2.1353372029
 H        -4.4186656679       -3.2675201122        1.0199026289
 H        -3.6376259357       -2.0175231459        1.9486728629
 H        -5.7251659955       -0.6979005107        4.8716318131
 H        -6.5984453240        0.3596157227        3.9588292179
 H        -7.3751802568       -3.5830834243        1.0175143248
 H        -7.9998005464       -3.7977080805        2.6120987870
 H        -6.3853680246       -4.3893279758        1.9842266734
 H        -4.5322493867       -2.3751449794        4.0980097411
 H        -5.5998022744       -3.6952944944        4.3967855771
 H        -4.4999598854       -3.8114997736        3.1220680937
 H        -7.7784981400       -1.4704007928        6.0633023212
 H        -8.4882325509        0.2867372496        5.6440025372
 H        -8.6625446740        4.2246523782        8.1988248416
 H        -7.1991979656        3.8524192568        7.0750463572
 H        -7.7862053984       -1.0951328930        8.4937181939
 H        -9.1882311447       -0.5326758944        7.8470142612
 H        -8.9472728100       -0.2346306276        9.6693519268
 H        -6.4280533598        2.6713136351        9.0457691306
 H        -7.4018883059        1.8304262068       10.2073591761
 H        -5.9615600176        0.8926694343        9.4779110060
 H       -10.1911566575        3.8454433120        6.2504316777
 H        -9.1629994640        5.1692978691        5.8716567470
 H        -9.6531512271        0.4052915334        1.1651282663
 H        -8.5088683855        0.1967764440        2.4203903015
 H       -10.2083054788        0.2157476310        2.5596333896
 H        -9.7788387540        0.8534442536        4.9326023780
 H       -11.1221348128        0.6823256710        3.8207662691
 H       -11.4823556750        1.4450481667        5.3767998871
 H       -11.6109658144        4.2063504803        4.3302219016
 H       -10.9115605320        4.4373446379        2.7825872295
 H       -12.1243139707        3.0378634802        3.0622551392
 Na        2.9820990942       -1.4852987740       -1.6145876831
