155

 C         5.3912062102        6.3527293276       -8.6156883611
 C         6.6577026222        5.4077033061       -8.6086736830
 C         6.6603900566        4.0362076727       -7.7246820135
 C         6.0786067178        4.2388077400       -6.3784496851
 C         6.6339983781        5.1500101691       -5.3935057670
 C         6.1601468507        2.9517306791       -8.6937680213
 C         8.1352770470        3.6470388451       -7.3161301651
 O         7.7580364916        5.7060174052       -9.0380699502
 O         5.0709242492        3.5404279323       -6.0834776538
 C         5.9172806755        4.9075858459       -4.0164221934
 C         5.5282823645        3.3984554145       -3.8172674687
 C         4.0518717375        2.8986746782       -3.1316459891
 C         4.1168764943        1.3900423448       -2.8470050019
 C         5.3015595498        0.9071479147       -1.9155204304
 O         6.4406193114        2.6253445110       -3.9880226938
 O         3.3861583602        0.5041143044       -3.2358593602
 C         4.0800371427        3.5824264888       -1.7198824605
 C         2.7133649142        3.3102893834       -3.8751228002
 C         6.2385866616        0.0374978818       -2.7958335450
 C         7.1119121407       -0.8713884422       -1.9167015808
 C         7.9599006743       -2.0467917627       -2.4985635862
 C         7.1960470522       -3.3431623175       -2.2226139815
 C         6.9233725784       -3.7690252801       -0.7753492223
 C         8.0769051819       -1.9911060291       -4.0386573683
 C         9.4784131078       -2.2108076374       -1.9161749224
 O         6.9887949366       -0.8206347365       -0.7212382476
 O         6.7032186691       -3.9760786379       -3.1482212390
 C         5.7727786721       -4.7789375913       -0.6710513801
 C         4.5153993141       -4.2772587807       -1.4802151378
 C         3.4786102858       -5.2696212927       -2.0979066141
 C         2.2077713779       -4.3756026869       -2.5799268510
 C         0.8186697180       -4.6674254839       -1.9813718518
 O         4.2516736642       -3.1215116818       -1.3523821851
 O         2.2951519958       -3.6568577996       -3.5673116021
 C         4.3039042739       -5.9344372967       -3.3764696005
 C         3.2155978549       -6.5124058026       -1.1829236121
 C        -0.2291343878       -3.5860325907       -2.3021774635
 C        -0.1817168597       -2.3946988420       -1.3583827684
 C        -1.0479619348       -2.1823829698        0.0183090675
 C        -2.5663108397       -1.9762601314       -0.4788576163
 C        -3.6565206438       -1.3279612172        0.3411904912
 C        -1.1224366797       -3.4585472447        0.9413879231
 C        -0.5510023491       -0.9278196970        0.8511217979
 O         0.7085763505       -1.5361937452       -1.3926021357
 O        -2.7729175760       -2.3926920845       -1.5936966177
 C        -4.1667797989       -2.0997142273        1.5462297372
 C        -5.2567806209       -1.4140254464        2.4408128485
 C        -6.1294514830       -2.4562532258        3.2049005340
 C        -6.9614553220       -1.5660530036        4.4030277822
 C        -6.1656602318       -1.1614782673        5.6882243826
 O        -5.4985253343       -0.2421266179        2.5137855677
 O        -8.0801565564       -1.1956566315        4.3641428324
 C        -7.2173700394       -3.1411438746        2.3626556950
 C        -5.1946460444       -3.5761673743        3.8637678221
 C        -7.0523322138       -0.4253731235        6.7499017665
 C        -6.3665789297        0.5699629918        7.5787859841
 C        -7.2651002596        1.2398224790        8.7356360480
 C        -8.4371301835        2.1979171000        8.0619275203
 C        -7.9825837835        3.2731133075        6.9528231868
 C        -8.1646357179        0.2883194169        9.7261302358
 C        -6.3775424502        2.0108305474        9.6104841360
 O        -5.2645169531        0.9449446102        7.4473513417
 O        -9.6028954518        2.0515701475        8.3283007337
 C        -8.9761318453        3.5564577149        5.8981263725
 C        -8.9296726304        2.5687253721        4.7084818502
 C       -10.2312708088        2.8928273516        3.7647103463
 C       -10.1597393563        2.3745208709        2.1920466941
 C        -9.8843766909        0.9814998401        1.8913985577
 O        -8.1470871919        1.6507046613        4.5730096186
 O       -10.4734886038        3.1800891867        1.3458413074
 C       -11.2422996685        2.0426506036        4.5466055407
 C       -10.8921974907        4.3655791933        3.6862760567
 H         5.7433727485        7.1882746934       -9.2091486368
 H         4.3954720262        5.8114488030       -8.8454541926
 H         5.0979785239        6.8440632121       -7.6684052217
 H         7.7590387868        5.2292164740       -5.3490966301
 H         6.1859927302        6.0769439337       -5.7318484594
 H         6.0526934218        2.0054769145       -8.1069486924
 H         6.8794920390        2.9168953124       -9.4332330135
 H         5.1401738656        3.0289434318       -9.1291672038
 H         8.8151372688        4.3682799752       -6.8082662534
 H         8.1379150403        2.8836016603       -6.5004569617
 H         8.7680978343        3.4226157324       -8.1729981025
 H         6.5150703437        5.1666229974       -3.1547763581
 H         5.0978142996        5.6580197871       -4.1465237044
 H         5.9446182846        1.6942095262       -1.5361305062
 H         4.9623814493        0.3745404240       -1.0154245338
 H         4.3921091072        4.6040826107       -1.8230794793
 H         5.0240050028        3.1484698040       -1.2674532106
 H         3.2357843898        3.4246003322       -1.0064096160
 H         2.8143749474        2.8564653300       -4.8742680420
 H         1.7357379101        2.9593252604       -3.3873391624
 H         2.7001287773        4.3400222750       -3.9338197382
 H         6.6938635036        0.7310635526       -3.5960502455
 H         5.5089816418       -0.5756683706       -3.3312031434
 H         7.8613041939       -4.0969301955       -0.3665955315
 H         6.6549876386       -2.8395093647       -0.1789093397
 H         7.1743844598       -1.8537699805       -4.5569625912
 H         8.5916278760       -2.9222149407       -4.3114250473
 H         8.6975386895       -1.1859301669       -4.3132146339
 H         9.9777621094       -3.1402191276       -2.2833586321
 H        10.1925108135       -1.4917565477       -2.2631442714
 H         9.3798326757       -2.2709107945       -0.7691629292
 H         6.0514146950       -5.6817901160       -1.2325971054
 H         5.6088581349       -5.0949621017        0.4049308276
 H         0.5097509081       -5.5627085354       -2.5140737101
 H         0.9924764142       -4.6422926693       -0.9453472033
 H         3.6811165222       -6.6344495863       -3.8876944441
 H         5.0774521309       -6.5159655854       -2.9381255141
 H         4.7604060409       -5.1063571863       -3.9114805281
 H         2.4336980680       -6.0533693048       -0.4912491860
 H         2.8242200480       -7.3098276007       -1.7509357108
 H         4.0323174706       -6.7833775209       -0.6043889845
 H        -1.2331237440       -4.0087650752       -2.1509065119
 H        -0.4014094344       -3.2494808794       -3.3513119922
 H        -3.5193425661       -0.3134939855        0.6856903977
 H        -4.5122572158       -1.1730875300       -0.3871391239
 H        -1.0047161916       -4.4614853853        0.3245174264
 H        -2.0392581351       -3.3297417499        1.4895355857
 H        -0.4045628315       -3.7214028033        1.6863038264
 H        -0.2884930290       -1.2049431274        1.8645552212
 H         0.2629545534       -0.4093463547        0.3607870794
 H        -1.3279472906       -0.1996890617        0.9682543502
 H        -4.6505081969       -3.0062596953        1.1396821679
 H        -3.5037979902       -2.3922242103        2.3630098060
 H        -5.7123995723       -1.9434510332        6.1561803088
 H        -5.2437067827       -0.5399069396        5.4195406305
 H        -8.0690304261       -2.4400270229        2.2729697804
 H        -7.2392852016       -4.1912661024        2.7315956019
 H        -6.6911008645       -3.3481887217        1.3328722987
 H        -4.2298913864       -3.2774713653        4.2288584871
 H        -5.7850692970       -4.0303572299        4.7877476447
 H        -5.1852946011       -4.4109010558        3.1568703722
 H        -7.8097037464       -0.9095963549        7.3007339009
 H        -7.6498101604        0.1889699135        6.1264420359
 H        -7.8472261393        4.2555600738        7.3689204464
 H        -7.0557254334        2.9619753037        6.4783025376
 H        -7.5402810369       -0.5618520064       10.1455587350
 H        -9.1598486889        0.0211853180        9.2862386223
 H        -8.3606505736        0.8780911097       10.5512367046
 H        -5.8653475033        2.9266182034        9.3750084564
 H        -6.7850690858        2.3140631021       10.5476984884
 H        -5.5907009579        1.4481631082        9.9316202225
 H       -10.0416987685        3.5003514709        6.2901552313
 H        -8.9187506984        4.6529363737        5.5381828324
 H       -10.5128645119        0.1797725455        2.2321563319
 H        -9.8856839402        0.7744546781        0.8256737205
 H        -8.8705839282        0.6366900211        2.2774675150
 H       -10.6801330294        1.4198589445        5.2670189137
 H       -11.8021605525        1.2938723723        3.9558436726
 H       -11.9838402096        2.6323676440        5.0518698619
 H       -11.7698957961        4.2597594145        4.2814779522
 H       -10.0937810038        5.1170381128        3.9353753393
 H       -11.1421146003        4.5563616958        2.6353654362
 Na        2.7512058054       -1.4858457340       -2.5089669981
