155

 C         5.0983626765        6.1350157011       -8.3112787486
 C         6.5214611927        5.7281479667       -8.4294434639
 C         6.7702534025        4.2235965992       -7.9575874366
 C         6.1719707654        4.1207627642       -6.5560661338
 C         6.9525241986        4.4472510122       -5.4159839496
 C         5.9396497654        3.2261185234       -8.9477006096
 C         8.2616686671        3.8799332911       -8.0009937526
 O         7.5210844143        6.3452710526       -8.8309693938
 O         5.0744329403        3.5899612670       -6.3964909678
 C         6.0181775477        4.6025845516       -4.1249196472
 C         5.5991453180        3.1601743101       -3.7162727427
 C         4.0264732288        2.6375070022       -3.1454447529
 C         4.1758980695        1.0756301794       -2.9836810836
 C         5.3198480613        0.5112296963       -2.2289289558
 O         6.5337011015        2.4491416883       -3.4642315535
 O         3.1859448689        0.4381672872       -3.4246874879
 C         3.7553383896        3.2481655184       -1.7874384120
 C         2.9054221654        3.0101931622       -4.2453347546
 C         6.0547929707       -0.6823900934       -3.0341342674
 C         7.2588933180       -1.1409436360       -2.2581689549
 C         8.0423889107       -2.3864081352       -2.7404217594
 C         7.1862721976       -3.6616075080       -2.2933369548
 C         6.4445931071       -3.8404211826       -0.9054084967
 C         8.2269134461       -2.4303391891       -4.2414839905
 C         9.3986034597       -2.3545191275       -1.8977257601
 O         7.4785856219       -0.6358396672       -1.1549241152
 O         6.9222691184       -4.4355626849       -3.1854784766
 C         5.1080863353       -4.6747918083       -1.0761818592
 C         3.9579759027       -4.0401184955       -1.8298407054
 C         2.9659762043       -5.0740426713       -2.4599931123
 C         1.6452814930       -4.1863096558       -2.6355864220
 C         0.3639908354       -4.7064393895       -1.9977805462
 O         3.8853604701       -2.8282280398       -2.0372962064
 O         1.5293909547       -3.5331929486       -3.6698163418
 C         3.5092233548       -5.3955534856       -4.0103407904
 C         2.8480501143       -6.3246147884       -1.7337077424
 C        -0.6373617810       -3.5198370607       -1.9401431826
 C        -0.2162411946       -2.4712735170       -1.0582433854
 C        -0.9904644742       -2.0368402114        0.2238621043
 C        -2.5173673024       -1.6141805637       -0.2518530260
 C        -3.4972254862       -1.1647529550        0.8382381115
 C        -0.8003551652       -3.2852242857        1.1322932609
 C        -0.3719814889       -0.8980670959        1.1049725508
 O         0.7965368072       -1.8898335273       -1.4132433682
 O        -2.8027770700       -1.7649303408       -1.4300221135
 C        -3.8712285819       -2.2812810728        1.7972885083
 C        -4.5310617550       -1.6796092616        3.1160042332
 C        -5.7700171219       -2.5435971867        3.6867091378
 C        -6.5180474807       -1.6198286668        4.7202848883
 C        -5.8178710599       -1.3235747773        6.0688903002
 O        -3.9099645424       -0.9960500513        3.8855877642
 O        -7.6071034046       -1.2478607934        4.3722684772
 C        -6.7792218576       -2.9120898152        2.6061367699
 C        -5.1184881134       -3.8327679589        4.3089587849
 C        -6.6697316961       -0.5874308539        7.1185427415
 C        -6.0101034567        0.5769605145        7.8764957066
 C        -6.8248025973        1.5368278301        8.7612633549
 C        -8.0320362401        1.9351924861        7.8634215123
 C        -7.7407436766        2.6842626396        6.4630941337
 C        -7.4293106071        0.7581774439        9.9874047777
 C        -5.8453708181        2.6256002728        9.1979819521
 O        -4.8110409657        0.7358217438        7.7694864571
 O        -9.1374172799        1.9296250739        8.3153940517
 C        -8.8508159639        3.5441351005        5.8538418034
 C        -9.6345783174        2.7254653403        4.8643290255
 C       -10.6454965450        3.3681304388        3.8496990222
 C       -10.4932006113        2.7510992100        2.3119794740
 C        -9.9047603604        1.3087981777        2.1168243055
 O        -9.7065137345        1.5425184290        4.9172713258
 O       -10.6062423753        3.3405962445        1.2600410843
 C       -11.9417035947        2.7068015502        4.4049332209
 C       -10.6737949772        4.9141093286        3.8482150675
 H         5.0247221867        7.0887897124       -8.9475098443
 H         4.2254878469        5.5138173308       -8.5980147185
 H         4.9363587956        6.4402937388       -7.2526427376
 H         7.5141801925        3.5178483888       -5.3183058634
 H         7.5607188260        5.4035824946       -5.6325740494
 H         6.3452874677        2.2443041676       -8.6277183309
 H         6.1047005147        3.2040101630      -10.0481505080
 H         4.8908123959        3.4764075769       -8.7631090289
 H         8.5149253801        2.9219548839       -8.5607636735
 H         8.8737882973        4.5850144600       -8.5645359049
 H         8.6380384751        3.6638886855       -6.9040578769
 H         6.5173623464        4.9756449480       -3.2458609127
 H         5.3112157794        5.3747667423       -4.3440013217
 H         6.0109147151        1.2668333403       -1.9874437569
 H         4.9351934789       -0.1100017700       -1.2711951511
 H         3.6081661000        4.4058893253       -1.8324436720
 H         4.7150007053        3.2484608638       -1.2950437878
 H         2.7630852487        2.8795292062       -1.3680410076
 H         3.1406060265        2.7194037435       -5.3281585879
 H         1.9805138846        2.4501474569       -3.8062114270
 H         2.7786833755        4.0371393526       -4.3496482150
 H         6.5080865483       -0.2020883483       -3.8462898686
 H         5.4723465815       -1.4539239694       -3.5314204122
 H         7.1726051514       -4.4912591030       -0.2486551270
 H         6.3717789678       -2.8609726998       -0.4502002587
 H         7.2442919960       -2.2805451492       -4.8039985289
 H         8.5808760047       -3.3721893235       -4.5972209178
 H         8.9528734452       -1.7157636111       -4.4859965262
 H        10.0752519530       -3.1342104609       -2.2324879310
 H         9.7504887433       -1.3217687224       -2.0506207146
 H         9.4413111632       -2.3937671675       -0.8044948084
 H         5.4338096762       -5.4182553238       -1.6602789589
 H         4.7365619199       -5.0134380242       -0.1807883983
 H         0.2059200194       -5.4758966704       -2.6894815236
 H         0.5830142652       -5.0405807521       -1.0135198096
 H         3.4454941868       -6.4158443791       -4.1908074164
 H         4.5917152897       -5.1384358640       -3.9494517116
 H         2.9318003422       -4.9086814925       -4.7885576682
 H         2.2204065157       -6.0534950884       -0.8972668936
 H         2.5030228023       -7.2182635913       -2.2724176993
 H         3.8153224708       -6.4656910274       -1.2682622538
 H        -1.5308245530       -3.8381701386       -1.5153616389
 H        -0.9171942420       -3.1582522744       -2.9480295691
 H        -2.9872833727       -0.4281049149        1.3005200644
 H        -4.3412618128       -0.6454599475        0.3823375607
 H        -1.4196004460       -4.1729581487        0.7734410267
 H        -1.0598121135       -3.1333888759        2.1238049408
 H         0.2670329138       -3.4207222928        1.1050816462
 H         0.1554071858       -0.1494710067        0.5096050951
 H        -1.1349782889       -0.4831264648        1.7513543827
 H         0.2207978409       -1.2557608996        1.9263303573
 H        -4.4409448830       -3.1267247519        1.4352362058
 H        -2.9360524738       -2.7483150932        2.0876035051
 H        -5.1816046225       -2.1012545244        6.5983638957
 H        -5.2500917538       -0.4986049310        5.7659469519
 H        -7.1931668542       -1.9919956578        2.0456478144
 H        -7.5805926642       -3.5246129758        3.1368214521
 H        -6.0732044170       -3.4787611442        1.9722695125
 H        -4.1074516492       -3.6341804843        4.5967641917
 H        -5.7452083409       -4.2005418804        5.1585335352
 H        -5.1685761096       -4.5708851959        3.5536620762
 H        -7.1744309538       -1.2414297515        7.8265319473
 H        -7.6395005816       -0.2334892055        6.6583346863
 H        -6.7365435581        3.1859369286        6.6194241666
 H        -7.4597892180        1.9329955378        5.6678161836
 H        -6.5650292821        0.3298673879       10.5551784018
 H        -8.0759225117        0.0328003844        9.6057729694
 H        -7.9559022623        1.4668299216       10.6844039218
 H        -5.2111653255        3.3916586105        8.5404388353
 H        -6.2967947367        3.2190691267       10.1330292931
 H        -4.8970673125        2.3129446400        9.7657991367
 H        -9.5507612595        3.7590507200        6.7034101029
 H        -8.5120648367        4.5059584822        5.4442718984
 H       -10.3347383476        0.6594101323        2.7589854090
 H        -9.8278596286        1.0528648055        1.1181526367
 H        -8.8557082218        1.2647290483        2.4817868720
 H       -11.9082834099        1.6155541974        4.2611813562
 H       -12.8599860442        3.0354385716        3.9496995713
 H       -12.1920705546        2.9410439961        5.5144096700
 H       -11.5537391337        5.2915570682        4.3388843640
 H        -9.6839298854        5.2733832797        4.2267221118
 H       -10.8012562294        5.1513327674        2.7245194383
 Na        2.2190029025       -1.3617697210       -2.9946555442
