155

 C         4.7725429031        6.3165631721       -8.7613722939
 C         6.2659583827        6.0556001118       -8.4955026812
 C         6.9261949060        4.6303426010       -8.4689230692
 C         6.3222110996        3.9648522374       -7.0722007086
 C         6.8893636325        4.2414042866       -5.6787367950
 C         6.2537167421        3.7287687910       -9.5029859280
 C         8.4955687898        4.6691248852       -8.4522999431
 O         7.0074731760        6.9637706080       -8.3663229044
 O         5.2983506925        3.3029639927       -7.1796919291
 C         5.8353850745        4.2641146678       -4.6457833977
 C         5.4799750982        2.8163052745       -4.1805240165
 C         4.2310564535        2.5628769483       -3.2126413014
 C         4.0891006382        0.9785680896       -3.0550207262
 C         5.0762210523        0.0995724877       -2.2541711960
 O         6.2371132844        1.9140855407       -4.2126669191
 O         3.0811181558        0.3994107671       -3.5619161331
 C         4.6308330094        3.2148635814       -1.8534594921
 C         3.0309799292        3.3022895576       -3.6016972156
 C         5.7439496218       -0.9744757658       -3.1024468764
 C         7.1331444779       -1.4586552815       -2.3504609727
 C         7.8522317298       -2.8172423482       -2.7358631376
 C         6.6788813127       -3.8906233467       -2.7741189724
 C         6.2197684873       -4.5053809667       -1.4762796392
 C         8.4416954595       -2.9117709626       -4.1443890590
 C         8.9091734195       -3.0946083621       -1.5750074452
 O         7.2868278989       -0.9445282866       -1.2581392938
 O         6.1564778779       -4.1541078480       -3.8217336418
 C         4.8440966725       -5.1881587871       -1.6327304020
 C         3.6227432722       -4.3404443059       -2.2378608751
 C         2.5486849319       -5.1859210018       -3.0703089453
 C         1.3037709938       -4.3553207409       -3.2091893310
 C         0.4896010802       -4.3236254214       -1.9261431947
 O         3.6137293863       -3.1393683368       -2.2804422593
 O         1.0820828454       -3.7052240308       -4.2209985819
 C         3.0235299364       -5.3560606485       -4.6143927864
 C         2.2054683096       -6.6403459334       -2.5397305641
 C        -0.5658314067       -3.0990057506       -1.9113062714
 C        -0.0503841947       -2.0429821010       -0.9949243306
 C        -0.3163463601       -1.8950812305        0.4716799018
 C        -1.9237254960       -1.5285333438        0.5646177760
 C        -2.4265141189       -1.6208500380        2.0861075067
 C         0.0061252757       -3.3248273279        1.2551671246
 C         0.3736664500       -0.7176306400        1.2407898609
 O         0.7092505558       -1.1866512572       -1.4771687295
 O        -2.6400669370       -1.3211446522       -0.3587146719
 C        -4.0246408041       -2.0078155965        2.2496136925
 C        -4.2296902524       -2.4242626582        3.7920039697
 C        -5.7204563550       -2.8540836400        4.3438577826
 C        -6.2639938479       -1.8060177189        5.3176297317
 C        -5.3577235413       -1.5548610104        6.5311330557
 O        -3.2113821652       -2.6183369410        4.4173951622
 O        -7.3196541215       -1.1804060796        5.2854217378
 C        -6.7187492102       -2.9802992043        3.1776918725
 C        -5.5623509181       -4.2672470542        5.1607674724
 C        -6.0632186539       -0.6316886638        7.6371852484
 C        -5.4700943188        0.6859816539        7.8374468748
 C        -6.5818751001        1.7864324440        8.4044270441
 C        -7.7300926757        2.3667296752        7.5374289593
 C        -7.5466254856        2.3442513548        5.9879029899
 C        -7.0103207867        1.3484794083        9.8571215326
 C        -5.8254803917        3.1229026379        8.4830032791
 O        -4.3770496318        1.0341684769        7.5700212941
 O        -8.8282914083        2.7962504399        7.9574060377
 C        -8.4809690025        3.2150298292        5.2499164731
 C        -9.9921604445        2.7721610090        5.3325285184
 C       -11.0955902692        3.6494361629        4.3805248042
 C       -10.5825885847        3.2226991401        2.7617280491
 C       -11.2523515130        1.9668196565        2.3256614554
 O       -10.3537086541        1.7710827946        5.9545847248
 O        -9.7533649976        3.8951402489        2.1613626063
 C       -12.5491071655        3.1020602570        4.5742943785
 C       -10.8828117164        5.2284819517        4.5582812809
 H         4.2971965776        7.0770446552       -8.2557958989
 H         4.5571901734        6.3311142704       -9.8574953384
 H         4.2955055443        5.4905981724       -8.3097362342
 H         7.6219798902        3.5135260042       -5.4749307106
 H         7.3884532734        5.2798121299       -5.6710243580
 H         6.8289336958        2.8185129276       -9.4144046358
 H         6.4518131950        4.1273139295      -10.4094168829
 H         5.2479292967        3.4332366284       -9.3971867711
 H         8.8701764077        3.6833886960       -8.7164651526
 H         8.8757778187        5.5078463628       -9.0600404958
 H         8.7852868534        4.9370109858       -7.4822307500
 H         6.1052197162        4.7703586570       -3.6947325764
 H         4.9095381838        4.8687209168       -4.9449340870
 H         5.8377707511        0.7435013734       -1.6324220823
 H         4.4073744032       -0.3435102688       -1.4230300102
 H         3.8667113667        3.8974402736       -1.7092783075
 H         5.6144187029        3.6664306848       -2.0028711537
 H         4.9893202761        2.5883555618       -1.1214369906
 H         2.6354718527        3.0194354964       -4.5248651877
 H         2.1805836152        3.0754142476       -3.0108945610
 H         3.2454999196        4.4410148531       -3.5054620075
 H         5.7830121238       -0.8188559478       -4.2170150312
 H         5.1506969669       -1.9050425581       -2.9482163154
 H         7.0441050147       -5.2614291667       -1.2407155402
 H         6.1652872897       -3.8692702423       -0.5906859156
 H         7.7461306543       -2.9418728583       -4.9283659164
 H         8.9596092414       -3.9127956528       -4.1030720473
 H         9.1681764918       -2.1420750877       -4.3467028791
 H         9.6775090488       -3.7635797908       -1.8989670697
 H         9.5068274677       -2.3015744175       -1.2814941573
 H         8.3408374748       -3.4875239955       -0.7023004641
 H         4.9801527153       -5.9959263808       -2.3366473571
 H         4.6107957550       -5.5416873576       -0.6949295712
 H        -0.0273132463       -5.3214830802       -2.1014741171
 H         0.9253686222       -4.4857969557       -0.9091171125
 H         2.7214610547       -6.3548536681       -4.9808789615
 H         4.1095012466       -5.4114680228       -4.6832786327
 H         2.7227983998       -4.5762155671       -5.3463152889
 H         1.7599661720       -6.6951626106       -1.4913298788
 H         1.4316019463       -6.9564687256       -3.2154055584
 H         2.9597939854       -7.3271142760       -2.6944380998
 H        -1.5130481126       -3.3336020774       -1.4370108827
 H        -0.6337443452       -2.8391694458       -3.0437373808
 H        -1.8514829383       -2.3636373504        2.5866945705
 H        -2.2517693424       -0.6917046287        2.4507887051
 H        -0.7849880802       -4.0149547160        0.9073454855
 H        -0.0252479356       -2.9851598773        2.3078408486
 H         1.0086110100       -3.7340516461        1.0265424380
 H         1.3723981107       -1.0075525991        1.6742305736
 H         0.7311482519        0.1083843716        0.6104616335
 H        -0.3221914592       -0.3000029667        1.9558752730
 H        -4.7145899476       -1.1772919222        1.9747936631
 H        -4.2444529352       -2.9387661782        1.5819567442
 H        -4.9781123514       -2.4874973226        6.9214175966
 H        -4.4805852232       -1.0212224167        6.1890537606
 H        -7.0551201537       -2.0173100864        2.9183652941
 H        -7.4067523013       -3.7205252759        3.4800316654
 H        -6.1338540752       -3.5374648047        2.4298123059
 H        -4.5039893899       -4.3124019650        5.5730545596
 H        -6.3381249837       -4.2158177247        5.9857534932
 H        -5.7608655899       -5.1163187933        4.4775388464
 H        -6.0061422722       -1.1857310245        8.4899993784
 H        -7.1020696515       -0.4680644601        7.2855333901
 H        -6.5265942556        2.5334968899        5.8986325869
 H        -7.6094391290        1.3490422377        5.6428961630
 H        -6.0771810089        1.1268207840       10.4637779358
 H        -7.5887380987        0.3927379997        9.7979214759
 H        -7.5227585376        2.1316345580       10.3204689935
 H        -5.6407748314        3.6598184342        7.4986417058
 H        -6.5071416361        3.9361716379        9.0452011291
 H        -4.8833292636        2.9461445105        9.1505368671
 H        -8.4220047883        4.2219502482        5.6825951110
 H        -8.2337625217        3.3767980836        4.1571295922
 H       -12.1119650870        1.8034764044        3.0422963054
 H       -11.7347510004        2.0866671484        1.3018295899
 H       -10.4736368853        1.1789659338        2.2536226976
 H       -12.5226742450        2.0272789408        4.7559552737
 H       -13.2492294284        3.3081451076        3.7725606212
 H       -12.9226654227        3.3328620253        5.5428338367
 H       -10.0350882580        5.3411609555        5.1629663288
 H       -10.6767581284        5.8136532503        3.6420383103
 H       -11.6971821679        5.6654314561        5.2046498262
 Na        1.9306001890       -1.4067644708       -3.5484405097
