155

 C         6.6254680676        7.4538632626       -9.8912892342
 C         6.1335502171        6.4248057817       -8.8098720291
 C         6.2657314223        4.9594796782       -8.9921221114
 C         5.8914036610        4.1188133584       -7.6914238719
 C         6.6553830656        4.4032684100       -6.4263034218
 C         5.3608386537        4.4845417392      -10.1454139142
 C         7.7224589964        4.6292876266       -9.1832235997
 O         5.5073648788        6.8207284082       -7.8525952939
 O         5.1508658596        3.1792076011       -7.6959673141
 C         6.1177874005        4.0209514199       -5.0570703711
 C         5.8625526562        2.4886010920       -4.8324642266
 C         4.3904957080        2.1015243058       -4.3014556555
 C         4.0473059876        0.7123698212       -3.8238118874
 C         5.0766352066       -0.1328339123       -3.1097912755
 O         6.7032882533        1.5715562766       -4.9542210512
 O         2.8588349892        0.3599308121       -3.5643761636
 C         4.0763080974        3.0061773704       -3.0654576769
 C         3.4245855170        2.5669180162       -5.3953329537
 C         5.8941771151       -1.1224213819       -4.0238660453
 C         6.0359572363       -2.4638206923       -3.0805926193
 C         6.6921426474       -3.6941456386       -3.8876492189
 C         5.2534736320       -4.5373553426       -4.1545716323
 C         4.4689695252       -5.2849131296       -3.0553389178
 C         7.3446677399       -3.4665068692       -5.2772894480
 C         7.7811347539       -4.5377460831       -3.0135898067
 O         5.4449880433       -2.5622831538       -2.0045901599
 O         4.8970920574       -4.4524859359       -5.2888364621
 C         3.0150970460       -5.4138129811       -3.6239610282
 C         2.1579920899       -4.0670101728       -3.3252459655
 C         0.6729172768       -4.0014257482       -3.6704703786
 C        -0.1027785192       -3.1694557508       -2.5332560112
 C        -0.2472815192       -3.7211134281       -1.0976758849
 O         2.7459942190       -3.1909183783       -2.8172004468
 O        -0.2914834809       -2.0121603580       -2.8327885949
 C         0.5047283397       -3.2798621437       -5.0597966150
 C         0.0059746535       -5.4412007823       -3.8708506118
 C        -0.3896119858       -2.5664018045       -0.1082613695
 C         0.8052492115       -2.4826523943        0.7921309004
 C         0.7272634887       -2.6753388831        2.4348958967
 C        -0.7153707208       -2.8367359064        3.0415638919
 C        -0.8564269178       -2.5430974244        4.5493374100
 C         1.5002695843       -3.8984275629        2.8991532193
 C         1.3290639150       -1.2512523267        2.9453643089
 O         1.9858361979       -2.2406543789        0.3667149368
 O        -1.7198887867       -3.1023006705        2.4331667054
 C        -2.3477164949       -2.1664454635        4.8622748230
 C        -3.2402065122       -3.4062690018        4.9174665212
 C        -4.7495731095       -3.1804611347        4.6023986738
 C        -5.1213495487       -1.6871866506        5.4251577390
 C        -4.9960979268       -1.5680619477        6.9433647797
 O        -2.8037011841       -4.3941975468        5.3618067531
 O        -5.6706978609       -0.9266805895        4.7148583556
 C        -5.0384684122       -3.0598647552        3.1133543077
 C        -5.5989154086       -4.3541545144        5.2916910723
 C        -5.2828661861       -0.1188193217        7.4753657609
 C        -4.4119935218        0.9976180583        6.9773469137
 C        -5.0824756629        2.4283726444        7.0794927586
 C        -6.1080255823        2.5630582507        5.9452361860
 C        -7.6261927916        2.1999524653        6.0610378182
 C        -5.6685487909        2.6325522179        8.5069368820
 C        -3.8431484654        3.4259263631        6.7157316896
 O        -3.2760711654        0.8194608588        6.5623488002
 O        -5.7046890390        2.7988629301        4.7708789006
 C        -8.6002384230        3.3550886585        5.8410068686
 C       -10.1913316512        2.8389967657        5.8078221066
 C       -11.4880124004        4.0009618373        5.8325750432
 C       -11.5162470337        4.6566949798        4.3707919500
 C       -12.8340627485        5.2604474169        3.7465167267
 O       -10.4945089405        1.6907396374        5.6497060549
 O       -10.4009357081        4.8975708119        3.9330593386
 C       -12.6278234128        3.3352512675        6.4695275019
 C       -10.9860784347        5.1578007404        6.6795611372
 H         6.6454896886        8.5747633423       -9.6703178192
 H         7.6231427161        7.1058626926      -10.0048552562
 H         6.0453128817        7.3369934558      -10.7954567993
 H         7.4393733572        3.7832991256       -6.7301030441
 H         7.0053423604        5.4891741097       -6.3904813514
 H         5.4299744785        3.4116497692      -10.1643124877
 H         5.6756796206        4.9546861449      -11.1534317075
 H         4.3188961695        4.7928797064      -10.0852687607
 H         8.0757059125        3.6818534766       -8.6879607907
 H         8.1403635192        4.4821328722      -10.2724155292
 H         8.2035431687        5.5092407047       -8.6678244138
 H         6.7773036585        4.3589319979       -4.2166274016
 H         5.2235720402        4.6175127741       -4.8799727116
 H         5.8625644561        0.4275452240       -2.5062602224
 H         4.7130227290       -0.8231333036       -2.2640150897
 H         3.0352318343        2.6851691740       -2.7486036809
 H         3.9766691429        4.1007960785       -3.1904295687
 H         4.8400553340        3.0185041821       -2.2513049840
 H         3.5824254472        2.2627689327       -6.4233068740
 H         2.6616926262        1.9102477259       -5.0560494902
 H         3.1338925324        3.5573931721       -5.3697095341
 H         6.8492608030       -0.7633314921       -4.3108111466
 H         5.2073441505       -1.4258582244       -4.8280351954
 H         4.9618737241       -6.2967268350       -2.9487266922
 H         4.5882973495       -4.7158022780       -2.1717431327
 H         6.6692058053       -3.2293478846       -6.0793280142
 H         7.9210071473       -4.3051603132       -5.6023191447
 H         8.0157042658       -2.6528365691       -5.1293549345
 H         8.0463915372       -5.5408676588       -3.4620247479
 H         8.6879989198       -3.8766929795       -2.8280160241
 H         7.4863452219       -4.7148350546       -2.0034921973
 H         3.0337763956       -5.5027288221       -4.6998323298
 H         2.6721633912       -6.4091335331       -3.2697151233
 H        -1.1111554441       -4.3675088414       -0.9275726181
 H         0.7858767188       -4.2013859324       -0.9444067814
 H         1.1629680584       -2.5546210856       -5.5738877710
 H        -0.4582013742       -2.8119920828       -5.1759806350
 H         0.5416279382       -4.0965527270       -5.7407167784
 H         0.2095502975       -6.0229534878       -2.9655516425
 H        -1.0387208445       -5.3389283890       -3.9887218001
 H         0.4411454427       -5.9564828160       -4.7469218849
 H        -1.3661782100       -2.7669407436        0.4283161442
 H        -0.3293602660       -1.6284965134       -0.6815662834
 H        -0.7674460039       -3.5234868579        5.0981124831
 H        -0.1811741384       -1.7474230317        4.9019261504
 H         0.9291423124       -4.6863560767        2.5163676700
 H         1.7118586850       -3.6786436553        3.9202334066
 H         2.4645698152       -3.7294397241        2.4331454716
 H         2.3395737276       -1.4018896892        3.3586507384
 H         1.4935442153       -0.5965565878        2.1000710536
 H         0.6088688971       -0.7552205453        3.6168351182
 H        -2.3597990403       -1.6993800509        5.8508922433
 H        -2.6614097890       -1.4384764187        4.0396801824
 H        -5.7165691224       -2.3277770453        7.3796021429
 H        -4.0443271791       -1.8390156833        7.3922077844
 H        -5.9997609642       -3.3284841241        2.6006813752
 H        -4.2293726336       -3.4561248757        2.4935199770
 H        -5.1123969070       -2.0296325509        2.8452684770
 H        -5.5075959155       -4.4216997731        6.3249848443
 H        -6.6888567632       -4.2748888374        5.2478566419
 H        -5.3391337621       -5.2968439571        4.8696152943
 H        -5.1825625101       -0.1552828081        8.5847289828
 H        -6.3320203115        0.1325122648        7.2698108820
 H        -7.6799152290        1.4231801615        5.2373039592
 H        -7.7529603102        1.5735731532        6.9877746777
 H        -5.0940899731        2.4808288647        9.3827254279
 H        -6.5811358699        2.0302691166        8.6398777051
 H        -6.1196724841        3.6999847447        8.4944134589
 H        -3.3484576730        2.7109845380        5.9824066518
 H        -4.0658644404        4.4811798780        6.5188261755
 H        -3.2064982788        3.2523417799        7.5908375003
 H        -8.4803031482        3.9802485517        6.7233729979
 H        -8.2941152878        3.9483138314        5.0118455608
 H       -13.2798901811        4.5435030762        3.1084509857
 H       -13.4152705934        5.3797567164        4.5889597225
 H       -12.5115527047        6.0840779073        3.1069327092
 H       -12.7811723262        2.3977259845        6.0040610719
 H       -13.4907055991        4.0592811435        6.4295094744
 H       -12.3126199194        3.0984989597        7.4664742225
 H       -11.7643288757        5.5398830299        7.3955468547
 H       -10.3524423140        4.6525555606        7.4942204692
 H       -10.4040683931        5.9276391818        6.2775119295
 Na        2.1053309513       -1.3282696254       -1.8615240216
