155

 C         8.0183640447        6.2043933827       -9.1160658974
 C         7.0674414713        5.1904350411       -8.5217735714
 C         5.8808299001        4.6888630990       -9.3980235073
 C         4.9577249289        3.7954361127       -8.5321370610
 C         5.4009315123        2.6175611884       -7.7054361632
 C         5.1269966596        5.8802892156      -10.0507106666
 C         6.4186191917        3.8790705728      -10.6031104807
 O         7.2186024269        4.8016305521       -7.3509969173
 O         3.8153798937        4.0676286578       -8.6838535379
 C         5.5393548204        2.7838713668       -6.1095036377
 C         4.5601882528        2.0393899003       -5.2151086031
 C         4.5207976734        2.2339114089       -3.5666222267
 C         4.3131440970        0.8142983949       -3.0539900473
 C         5.2048701606       -0.2532384003       -3.6043475287
 O         3.6229578452        1.4744251869       -5.7519541361
 O         3.3894929958        0.4075261123       -2.3341526921
 C         6.0530362298        2.5974811597       -3.3081183573
 C         3.6001901938        3.2727052753       -3.0510524465
 C         4.5316483689       -1.6466775934       -3.4180986190
 C         5.3520251636       -2.7206623122       -4.0890434461
 C         4.8028048235       -3.3398568049       -5.3831147737
 C         3.2109048266       -3.6697539687       -5.0611219852
 C         3.0420472961       -4.9730114718       -4.2868298161
 C         4.8670420969       -2.2759954169       -6.5066628051
 C         5.6208588745       -4.6200624438       -5.7330855699
 O         6.5520260370       -2.8626549354       -3.8402071446
 O         2.3322527254       -3.1082604842       -5.6283858517
 C         1.5820502513       -5.2770582467       -3.9110931814
 C         0.9884280532       -4.0755829323       -3.1636179179
 C        -0.6147136609       -3.6611797671       -3.2929907739
 C        -0.8743433550       -3.1962036425       -1.7850104376
 C        -1.3065884392       -4.0414374762       -0.5799647563
 O         1.7784842586       -3.2351766119       -2.8344876496
 O        -0.6525683229       -1.9840387454       -1.5833675929
 C        -0.7944945972       -2.4892345890       -4.2756755938
 C        -1.5629255456       -4.9360650098       -3.6253252107
 C        -0.7235834898       -3.3841865999        0.6695591102
 C         0.7896096545       -3.0564234007        0.8856319708
 C         1.6129451119       -3.8802367296        1.8586875349
 C         0.7184411781       -4.1305491683        3.1631322050
 C         0.0098872332       -2.7156402852        3.6276153214
 C         1.9571608111       -5.3492115286        1.1653405296
 C         2.9304835435       -3.0860028414        2.1005089834
 O         1.4509423213       -2.2966604887        0.1794655172
 O         0.4695125418       -5.1495279289        3.6990333468
 C        -1.4127532765       -3.1363483495        3.9271812392
 C        -1.6303934160       -2.9204631873        5.5208438649
 C        -3.0700535418       -3.1801630935        6.0465210080
 C        -4.0388499069       -2.0467246179        5.4929363191
 C        -4.7041719015       -0.9908012881        6.4788410758
 O        -0.7167952770       -2.5037034423        6.1505833246
 O        -4.3719912365       -2.0703987133        4.3087276337
 C        -3.6051191526       -4.5317355532        5.4615727195
 C        -3.1607136267       -3.1684003930        7.5808904023
 C        -5.4226765851        0.0976224046        5.7633118872
 C        -5.1572976508        1.5802029194        6.1889311819
 C        -4.7317953778        2.6523980056        5.2010395628
 C        -6.2318932712        3.2858464330        4.5552239300
 C        -7.1947492490        4.0291373951        5.5897645893
 C        -4.0957480442        3.8857868210        5.8890884004
 C        -3.8256224194        2.0291744576        4.0270266719
 O        -5.3150401265        1.8259323793        7.3945119758
 O        -6.5738875316        3.2345110107        3.3883617154
 C        -8.2425461933        3.1113688921        6.3116092963
 C        -9.0591160902        3.7753445441        7.5201748281
 C       -10.5468729754        4.1833358646        7.2529060431
 C       -10.3979195747        5.6500349225        6.4918911999
 C        -9.9180625284        6.9054565928        7.3064455458
 O        -8.4840437572        3.9767802349        8.5464346270
 O       -10.5492056819        5.7573638735        5.3031522098
 C       -11.2208863272        3.2455724436        6.3091037357
 C       -11.2758562853        4.5067770957        8.6802961219
 H         8.9832412062        6.1665384786       -8.6603544041
 H         8.0862744159        5.9965078443      -10.1255690723
 H         7.6265252548        7.1910819060       -8.8522171759
 H         4.5347551914        1.9245426233       -7.8136783214
 H         6.2751215873        2.1204943051       -8.1622364293
 H         4.1068331596        5.5342180374      -10.3521337017
 H         5.6483385269        6.3274795336      -10.7897962985
 H         4.8523673005        6.4961518851       -9.1681129288
 H         5.5150416230        3.7357641132      -11.2046418365
 H         7.1714726651        4.3782133647      -11.2185514840
 H         6.8052761884        2.9288707490      -10.3326210288
 H         6.5722261157        2.7722837333       -5.8333684741
 H         5.1363614970        3.7432020376       -5.7824172654
 H         5.7090759595       -0.2431354714       -4.5892361311
 H         6.0862838844       -0.2199819301       -3.1062911640
 H         5.9754620283        2.7779551959       -2.2087676731
 H         6.3271064884        3.5679195700       -3.7828569922
 H         6.7263237000        1.8160941093       -3.2433028961
 H         3.6167993913        4.1218479360       -3.5703330102
 H         2.6162301879        2.7780338331       -3.0317988061
 H         3.7862798732        3.4051186388       -1.9778497838
 H         3.4879769464       -1.6337724421       -3.8348716164
 H         4.3720967422       -1.9301736739       -2.3711449006
 H         3.5637874604       -5.7774066054       -4.7529421305
 H         3.3878716858       -4.8913202524       -3.1983646566
 H         3.8614319730       -1.7810493254       -6.5742983354
 H         5.1155796031       -2.7770501786       -7.4841557776
 H         5.6074077959       -1.4912744656       -6.3273876533
 H         5.4354235967       -4.7935877763       -6.8146295534
 H         6.6660347882       -4.3954291387       -5.6383806102
 H         5.3804225255       -5.4405351533       -5.1093943596
 H         1.0771192318       -5.4269429454       -4.7790532299
 H         1.6327882791       -6.1582465068       -3.3670892416
 H        -2.4094495778       -3.7729878386       -0.6446333948
 H        -1.0805262216       -5.0886326728       -0.6966781585
 H        -0.0085445390       -2.5514580507       -5.0910792598
 H        -0.7166348405       -1.4963942698       -3.9079880649
 H        -1.7713306443       -2.6369553982       -4.7075443606
 H        -1.9809963233       -5.2434047114       -2.6543065987
 H        -2.4114593310       -4.6640453556       -4.3203862455
 H        -1.0372601604       -5.6892566149       -4.1494262853
 H        -1.1229801863       -4.0927077385        1.3999356748
 H        -1.3649225524       -2.4157146886        0.7215025292
 H         0.5195381042       -2.3881133927        4.5998577340
 H        -0.0273733698       -2.0320310120        2.8720267271
 H         1.0721348498       -5.9561613581        0.9388779242
 H         2.3403150126       -5.9939201271        1.9222517833
 H         2.5341900235       -5.1046011937        0.3131389506
 H         3.8577524565       -3.6992954418        1.9341792910
 H         3.1949329826       -2.4129395299        1.3121440378
 H         2.9007463261       -2.6089885857        3.0815881614
 H        -1.8972787637       -2.2149192802        3.4517282554
 H        -1.7612968658       -4.1131477964        3.5297864838
 H        -5.3874260137       -1.5603837332        7.2394723009
 H        -3.9340403594       -0.6860789074        7.2100719153
 H        -2.8802200201       -5.3294092383        5.8151710699
 H        -3.8448773487       -4.3330551012        4.3874512473
 H        -4.5988620892       -4.7438656648        5.9890313087
 H        -2.7575041423       -2.2737590231        7.8017856060
 H        -4.2372239039       -3.3506180732        7.8112373583
 H        -2.6306656445       -3.9011687325        8.0997850892
 H        -6.4802773328       -0.0488136045        6.0124586276
 H        -5.2690308392        0.0215996174        4.7660735859
 H        -6.6600882692        4.5781158252        6.3923908300
 H        -7.6791336311        4.8533994883        5.0776565169
 H        -2.9802202966        4.0970157103        5.4864842534
 H        -4.0683138716        3.5647750250        6.9025693222
 H        -4.7484901673        4.7104151259        5.8079687212
 H        -3.8199981960        0.8863349272        4.0518720354
 H        -3.9095189332        2.3790964137        2.8937255684
 H        -2.6997122066        2.2404708409        4.3239359972
 H        -8.6494006374        2.6553786630        5.4295530070
 H        -7.6434747049        2.2539516872        6.6980940826
 H        -9.5599118942        6.7803148568        8.3315255479
 H        -9.3789094126        7.3976970223        6.5973462873
 H       -10.8545381117        7.4748785120        7.3722244101
 H       -10.5429159021        2.3640814070        6.2538031131
 H       -11.4624653038        3.4416116283        5.1938680929
 H       -12.1506381227        2.8551700473        6.6699004843
 H       -11.9092661634        3.7261163303        9.0011908241
 H       -10.4649659489        4.8982779877        9.2813684676
 H       -11.9744255351        5.2793857406        8.3541679654
 Na        1.5653171928       -0.9821603100       -1.6591645876
