155

 C         8.1402221129        6.1448599895       -9.2506595525
 C         7.1725543005        5.0709094621       -8.5046995579
 C         5.8580597812        4.6414890820       -9.2224312672
 C         4.7200445744        3.8673786663       -8.4823452593
 C         5.2982443034        2.7224256378       -7.5484244504
 C         5.1573880236        5.9790437322       -9.7512211612
 C         6.2707803194        3.7003721664      -10.4597507800
 O         7.5624195226        4.5610120607       -7.5214046902
 O         3.4820435760        3.9351382971       -8.4660413264
 C         5.1311386530        3.1780631017       -6.0884775636
 C         4.2580352798        2.2218300191       -5.1972695476
 C         4.6494977008        2.2514511085       -3.6833064874
 C         4.1954406642        0.8197816816       -3.1534737285
 C         5.0601998217       -0.3124669405       -3.4627131111
 O         3.2274903400        1.7553712927       -5.6138250780
 O         3.1888707567        0.7286484337       -2.4509011240
 C         6.1547335022        2.5037673558       -3.2342994456
 C         3.7230092353        3.4554394598       -3.0877276209
 C         4.4792513974       -1.7684614578       -3.6834971972
 C         5.4276621198       -2.8671805401       -4.4163999212
 C         4.7614171274       -3.5506611227       -5.6800475561
 C         3.3540738478       -4.0307501299       -5.3629014596
 C         3.0059640729       -5.1280156244       -4.3228991916
 C         4.6266559643       -2.3198890075       -6.7686426788
 C         5.6638983925       -4.7603170089       -6.2787850204
 O         6.4993337006       -3.1685928872       -4.0142071612
 O         2.3119824125       -3.3874020845       -5.6625656249
 C         1.3767372500       -5.1938696536       -4.0191418964
 C         0.8945949023       -4.0391756863       -3.1527669960
 C        -0.6352224397       -3.6022454577       -3.2418712528
 C        -0.8047727529       -2.9709995399       -1.7633839184
 C        -1.1749461892       -4.0332483124       -0.6073366730
 O         1.6411632448       -3.2385284056       -2.5303275024
 O        -0.8184182688       -1.8261616520       -1.5386039826
 C        -0.8270227552       -2.4078468401       -4.2250208649
 C        -1.4530830566       -4.7952036709       -3.6204979124
 C        -0.7086257541       -3.4745039770        0.7784203758
 C         0.7322074723       -3.0347521103        0.8405397556
 C         1.6709909944       -4.0049088727        1.7013991997
 C         0.8205679000       -4.2006016813        2.9985610579
 C         0.1849915341       -3.0623354865        3.8228208898
 C         1.8790327128       -5.3378417691        0.9548796106
 C         3.0202812496       -3.4675844388        2.2175128013
 O         1.1801632751       -2.0742738056        0.2221123137
 O         0.8342909111       -5.3472715476        3.4487325342
 C        -1.2881889422       -3.3523426668        4.2732514340
 C        -1.5819064867       -2.9855400062        5.6726045040
 C        -3.0827355622       -3.0284464554        6.2978071172
 C        -4.0888046659       -2.0397431796        5.4842712853
 C        -4.5364896813       -0.7268778116        6.2881173591
 O        -0.7384507891       -2.4612341921        6.4086515648
 O        -4.1613071755       -2.1348636003        4.2877429811
 C        -3.5882970410       -4.5442778075        5.9781017317
 C        -2.8241116162       -2.8530455371        7.8757553184
 C        -5.5786576597        0.2439893720        5.5995720178
 C        -5.2200952491        1.5628430187        6.0557460533
 C        -4.8873939260        2.7348621651        5.0829880852
 C        -6.3557945455        3.4066986964        4.6252207445
 C        -7.2373252931        4.0513759224        5.7492614471
 C        -3.9803475736        3.8588179216        5.8293049576
 C        -4.2874504932        2.3480786856        3.6396954936
 O        -5.2545730128        1.7457613109        7.2793747626
 O        -6.6113812311        3.3853081108        3.4627557067
 C        -7.9406421798        3.0430408656        6.7607459760
 C        -8.8943723911        3.8559103909        7.5562579671
 C       -10.4107125742        4.2233903787        7.2572506743
 C       -10.2390779730        5.7116774041        6.6024967628
 C        -9.4443972508        6.7312853303        7.4659018987
 O        -8.4399517639        4.4540500131        8.5588253151
 O       -10.6718072584        5.9631548519        5.4840855732
 C       -11.1946258153        3.3066558017        6.2787641334
 C       -11.2023347303        4.1978867462        8.5696928883
 H         9.1720753247        5.9337017930       -8.7812983821
 H         8.1984383229        6.1033121443      -10.4129533352
 H         7.9685882039        7.1499148998       -8.8593653463
 H         4.7210964131        1.7870895847       -7.8542286211
 H         6.3521329065        2.5646511796       -7.7250064808
 H         4.4189447396        5.8351157761      -10.5351378772
 H         6.1449703100        6.4030571267      -10.2417341856
 H         4.6498923445        6.6037015872       -8.9705452128
 H         5.5488884940        3.3270812601      -11.2819976032
 H         7.1038960784        4.2615359627      -11.0079937965
 H         6.8924872507        2.8969373919       -9.9441191076
 H         6.1345105057        3.4202049215       -5.6035212060
 H         4.6542815806        4.2084302640       -6.1431786097
 H         5.9319566377       -0.1100229676       -4.0684618557
 H         5.8443434596       -0.5473495887       -2.6260884030
 H         6.4376221233        2.0233623723       -2.3098807561
 H         6.3286663566        3.5688094254       -3.2879501339
 H         6.8055336783        1.9016453524       -3.9606235834
 H         4.1981552500        4.4870109089       -3.3796151159
 H         2.6466023792        3.3992015335       -3.2832901631
 H         3.7766780992        3.3314795261       -2.0218774352
 H         3.4873804147       -1.8055321666       -4.0831071349
 H         4.3575547873       -2.1975411539       -2.6892819863
 H         3.3544446751       -6.1269956452       -4.7061244601
 H         3.4918648114       -5.0645578640       -3.3934122866
 H         3.9364532585       -1.6146274911       -6.4350225345
 H         4.3072927017       -2.6975327302       -7.7163658360
 H         5.5847098490       -1.8039445481       -6.8712646299
 H         5.5343168839       -4.8051313612       -7.3445180025
 H         6.7317951789       -4.5648416146       -6.0493020671
 H         5.4288561519       -5.6744439415       -5.6311276455
 H         1.0292868845       -5.0011629633       -5.1305229194
 H         1.0082433902       -6.2506904131       -3.6984886500
 H        -2.2316061512       -3.9994969972       -0.7900740524
 H        -0.7657070153       -5.0435674422       -0.8914917979
 H        -1.0881937065       -2.7377000042       -5.2320232987
 H         0.1227700824       -1.9050910737       -4.3947772185
 H        -1.4735088408       -1.6379696282       -3.7436280058
 H        -1.4105502731       -5.6695186992       -2.9934889288
 H        -2.4401963213       -4.4556509382       -3.7736149278
 H        -1.1695462282       -4.9535560580       -4.6781517076
 H        -0.9325678168       -4.2827465545        1.4875185793
 H        -1.3881520932       -2.6983399756        0.9184992232
 H         0.7819885324       -3.0258218090        4.7060643112
 H         0.2519905927       -2.1835458708        3.0512032184
 H         0.9422325977       -5.8888226167        0.8379240108
 H         2.2278165440       -6.1114037650        1.7362623296
 H         2.5233186357       -5.1395299835        0.0411224734
 H         3.4343139320       -4.0396128203        3.0242228864
 H         3.8750588226       -3.5270326704        1.4999751885
 H         2.7974582642       -2.5170083196        2.6811859308
 H        -2.0795457596       -2.9084107075        3.6904985821
 H        -1.3636009169       -4.4598732053        4.3495979939
 H        -4.8509095335       -1.0494962539        7.2125152378
 H        -3.5679690397       -0.2014976542        6.5228527567
 H        -2.8301687971       -5.1044755128        5.5508225550
 H        -4.4853237118       -4.4174803278        5.4983534724
 H        -3.6872244780       -5.1017117903        6.8474280125
 H        -2.3307943755       -1.8471817197        7.8862221674
 H        -3.7131048532       -3.0375235225        8.3770014055
 H        -2.1171424488       -3.6194525898        8.2888737730
 H        -6.6724221106        0.1896537517        5.9190322204
 H        -5.4935950787        0.2952837650        4.4302299353
 H        -6.7211844649        4.6792026429        6.4152484721
 H        -7.9595372387        4.7302945018        5.2752999393
 H        -3.3352260350        4.2058405020        5.1249487537
 H        -3.5388878911        3.3660862423        6.7244523342
 H        -4.6782902377        4.6178918776        6.1907398220
 H        -4.5317799846        1.3613808894        3.2589666476
 H        -4.6863954686        3.0039562927        3.0349962116
 H        -3.3246874014        2.3974502351        3.5722509610
 H        -8.4048752365        2.2701741500        6.1391634476
 H        -7.1596782927        2.5462224307        7.2938596708
 H       -10.0267703363        6.7496052890        8.3778207424
 H        -8.4442087184        6.1653578300        7.6789861222
 H        -9.2898640016        7.7130018461        7.0201006971
 H       -10.7671546583        2.5387491339        5.6667660294
 H       -11.5292128247        3.9411983475        5.4706108389
 H       -12.1294489473        2.9847937339        6.7485505758
 H       -11.2513149292        3.1065776450        8.7213674001
 H       -10.5333901879        4.6889785130        9.2534278913
 H       -12.2554214525        4.4727347113        8.4262643630
 Na        1.6651777625       -1.1770393763       -1.9204547470
