155

 C         8.1295721072        5.9448988641       -9.2341178893
 C         7.1920005564        4.9097134221       -8.5317501826
 C         5.9110256237        4.6363072993       -9.2815277082
 C         4.7761252654        3.9145016034       -8.3154378724
 C         5.0753948261        2.8733774200       -7.2966940035
 C         5.1016237566        5.9390988112       -9.7399260344
 C         6.0446233293        3.7127099744      -10.4834927449
 O         7.5524659694        4.1931585653       -7.5757629119
 O         3.6097953856        4.2229529697       -8.5565189349
 C         4.9611213568        3.4797747745       -5.9106739236
 C         4.1258146367        2.4211551185       -5.1073084007
 C         4.6479145139        2.1903935184       -3.4914348328
 C         4.0298593693        0.7395318612       -3.1801323728
 C         4.9592585282       -0.4630391832       -3.4573676694
 O         3.1604806258        1.8102997729       -5.5249859853
 O         2.8746610518        0.5788095462       -2.7936809749
 C         6.1460008401        2.2548008829       -3.3936086970
 C         3.7877038924        3.2421900327       -2.6056221668
 C         4.3289576813       -1.7797497775       -3.8344148932
 C         5.2550480724       -2.8738058327       -4.5777380113
 C         4.6087785460       -3.5376211455       -5.8756888669
 C         3.0666992436       -4.0479774139       -5.5538921686
 C         2.8483303357       -5.1672864001       -4.5548670108
 C         4.4945731686       -2.6427735349       -7.1070304490
 C         5.5113964780       -4.6991447154       -6.3443331523
 O         6.2954750082       -3.2925910289       -4.1043820261
 O         2.1562741859       -3.4197547592       -5.9486927811
 C         1.3908484818       -5.2119138566       -4.0783719389
 C         1.0261881102       -4.0093853008       -3.2440958001
 C        -0.4526099850       -3.4423547234       -3.2868252950
 C        -0.7343370056       -2.9002411278       -1.9412168599
 C        -0.9139252685       -3.9357949374       -0.8068071258
 O         1.8957570236       -3.4758024706       -2.5728766818
 O        -0.8802891419       -1.6543749095       -1.6414175016
 C        -0.6416204396       -2.3401601472       -4.4121455471
 C        -1.5479790506       -4.6123173475       -3.4614156569
 C        -0.7577740302       -3.3656356276        0.6330676875
 C         0.7543178077       -3.0241887765        0.9526698417
 C         1.6485230441       -4.0755444303        1.8062293659
 C         0.9423781708       -4.5887394247        3.1567039123
 C         0.3095115486       -3.4412554270        4.0214210123
 C         1.7503538503       -5.3354334165        0.8879609762
 C         3.0354735393       -3.3503410567        1.9471870292
 O         1.2803817108       -2.0226058137        0.4694963937
 O         0.8454432705       -5.7488458127        3.5000582508
 C        -1.1319388351       -3.7265330797        4.5876653257
 C        -1.4956968991       -2.9282642182        5.9630978139
 C        -2.9178761408       -2.9743423310        6.5045302960
 C        -3.7736861793       -2.0031574586        5.5240826549
 C        -4.1852032070       -0.6919262701        6.2725668428
 O        -0.5444271355       -2.2890199581        6.3760701467
 O        -3.9817236020       -2.3458037041        4.3619786065
 C        -3.6477016267       -4.3584747922        6.4782356873
 C        -3.0448404463       -2.3976733659        7.9785166921
 C        -5.1694790494        0.0758883616        5.4200613525
 C        -5.2143132601        1.6366984390        5.8043692780
 C        -5.1295628027        2.7732598411        4.9066409840
 C        -6.5969052397        3.5913551365        4.7561076809
 C        -7.2966883263        4.1769504176        5.9428699828
 C        -4.1150914895        3.8090443708        5.6529342302
 C        -4.3880124042        2.4234922084        3.6649879909
 O        -5.0481798473        1.7699993123        7.0005203266
 O        -7.0049528571        3.5252286348        3.6105921895
 C        -7.9106917882        3.0276224522        6.8521973028
 C        -8.7912529996        3.8664105858        7.7552576085
 C       -10.1018353328        4.3089929972        7.2421759794
 C       -10.1331395797        5.8793881808        6.7284272909
 C        -9.3674856386        6.9274601841        7.5898265975
 O        -8.3171988996        4.3575254728        8.7380215337
 O       -10.7831308015        6.0654914304        5.7861321156
 C       -10.7470514818        3.3297836412        6.1440273506
 C       -11.0687129960        4.2940402468        8.4929186559
 H         9.1373891388        5.9484708650       -9.0929114514
 H         7.8714000149        5.7716355134      -10.2167419077
 H         7.7853606118        6.9790882138       -8.9904939184
 H         4.2949185618        2.2590601896       -7.5023360832
 H         6.1013895410        2.4249166025       -7.5104743191
 H         4.1134120682        5.8404524082      -10.1132410910
 H         5.7091372204        6.4071129748      -10.4432815394
 H         5.0104137715        6.4608696358       -8.8593897214
 H         5.1942661834        3.4891945386      -10.9660599315
 H         6.5593097437        4.2715318761      -11.1879052964
 H         6.6314307517        2.8709778040      -10.2022195074
 H         5.8306075264        3.7332140240       -5.3876709850
 H         4.5276607857        4.4391071100       -5.9993255955
 H         5.8670699905       -0.2231101888       -4.0452202933
 H         5.5632588270       -0.7339079673       -2.6485239732
 H         6.4820043134        1.7182862509       -2.4860996832
 H         6.3855268346        3.3069990374       -3.3403274478
 H         6.6004271748        1.8852820155       -4.2853845645
 H         4.2098983036        4.1319182102       -3.0563715485
 H         2.7658062164        3.2050423158       -2.9648386521
 H         3.7696384947        3.3859990901       -1.4961028460
 H         3.4622832399       -1.6499832217       -4.5300918195
 H         3.8538220589       -2.2259711485       -2.9235168887
 H         3.1295303985       -6.1764051900       -4.7455271726
 H         3.5692592741       -4.8641294326       -3.7003887366
 H         4.3430516924       -1.5471458104       -6.7110202988
 H         3.5917713628       -2.8320380381       -7.6734208245
 H         5.3811786846       -2.5665256061       -7.7034966286
 H         5.0283327035       -5.2657450369       -7.1641550530
 H         6.4737962739       -4.3816988238       -6.7016898670
 H         5.6923388849       -5.1924367581       -5.4847569126
 H         0.9427971822       -5.3136673091       -4.9695258663
 H         1.2451531418       -6.1092392296       -3.5553549735
 H        -1.9116739239       -4.3969773463       -0.9831901065
 H        -0.2286388072       -4.6606640976       -1.0879031074
 H        -1.5180759914       -2.6317213021       -4.9149317397
 H         0.0597652878       -2.3524517326       -5.2840182936
 H        -0.5982057229       -1.3187252075       -4.0124370482
 H        -0.9746790193       -5.5443927365       -3.2007943386
 H        -2.4051455799       -4.5289459283       -2.7671379509
 H        -1.9613237438       -4.7060792210       -4.4645603391
 H        -1.3135737344       -4.0889688392        1.1859265712
 H        -1.4067350950       -2.4543417389        0.5391247504
 H         0.9651052909       -3.6318212162        4.8964787930
 H         0.3938979050       -2.5925823757        3.4901485576
 H         0.7482226900       -5.6264310038        0.6640526551
 H         2.0902563720       -6.1566571758        1.3898858073
 H         2.3275702352       -5.0440020265        0.0623344445
 H         3.4307446526       -3.3018769896        2.9966921644
 H         3.6733288688       -3.9651905334        1.3649492913
 H         3.0856882911       -2.3059698400        1.6485728210
 H        -1.9510346421       -3.3923820159        3.9468226684
 H        -1.2162765764       -4.7720078549        4.8100452971
 H        -4.6425878271       -0.9219144964        7.3547638536
 H        -3.1776495870       -0.2414884994        6.3286857738
 H        -3.1715057924       -4.9245550744        5.6787652703
 H        -4.7461348357       -4.0486379390        6.5000748256
 H        -3.2744100613       -4.9890825629        7.3029923700
 H        -2.5894897447       -1.4149991076        8.0840690276
 H        -4.1295408014       -2.6265189201        8.2926751905
 H        -2.5103088090       -3.1367070812        8.5692669163
 H        -6.1304955470       -0.2564966042        5.6243011610
 H        -4.9722631104       -0.1481552918        4.4097349069
 H        -6.6466118337        4.8091531205        6.6670762642
 H        -8.1334403875        4.8409911370        5.6103571197
 H        -4.4102168059        4.6563222699        4.9603758503
 H        -3.0720773797        3.4287318970        5.4766954035
 H        -4.2963631021        4.0117657736        6.7580822278
 H        -5.1133533963        2.2936898179        2.7855248339
 H        -3.7190777616        3.3615430215        3.3048629999
 H        -3.7685943587        1.3827916792        3.6308281595
 H        -8.3453647767        2.2880760421        6.1747025354
 H        -7.1420367197        2.4899863639        7.4505154938
 H       -10.0586563350        7.6623238168        8.0490626813
 H        -8.8020332217        6.4344091578        8.3375722755
 H        -8.7552704863        7.4406979856        6.8102359119
 H       -10.0431098096        2.7251398672        5.5182307713
 H       -11.2656795337        3.6962357861        5.2882373803
 H       -11.4294672587        2.7043022803        6.7325384995
 H       -10.8974240926        3.4655033678        9.1873000312
 H       -10.8523621042        5.2458158373        8.9782196861
 H       -11.9519256910        4.2022247429        7.9561486595
 Na        1.6521388934       -1.0607298654       -2.0169231271
