155

 C         8.2266724643        5.2395541845       -8.7555791959
 C         6.9703384025        4.2555767446       -8.5390883178
 C         5.5219569434        4.5777518880       -9.0440657988
 C         4.6314854214        4.6605003609       -7.7947012313
 C         4.4438889279        3.2995128447       -7.0847286622
 C         5.3245526218        5.7940538554       -9.8540763795
 C         5.1619216337        3.2622341865       -9.9790243246
 O         7.1428716015        3.4747557695       -7.6642575072
 O         4.1885845591        5.7083184258       -7.3535710632
 C         3.8814949491        3.5013842040       -5.6758926950
 C         3.5082725521        2.1955511163       -4.9674576888
 C         4.2602159528        1.8256512117       -3.5318519375
 C         4.0118774858        0.4034714603       -3.2232478500
 C         4.6528366142       -0.7736284518       -4.0081599073
 O         2.5788564394        1.5844424169       -5.3823636349
 O         3.3228845001        0.2063209807       -2.2476193656
 C         5.8518853638        2.0110405541       -3.7598886860
 C         3.6613566744        2.7414496381       -2.4257047148
 C         3.8364419111       -1.3759903819       -5.1681976230
 C         4.4080777868       -2.8399388017       -5.3344740586
 C         3.8977923834       -3.7345926424       -6.4781719773
 C         2.5149050278       -4.2148162790       -6.1074195159
 C         2.4104169928       -5.2572637634       -4.9917677741
 C         3.8354578652       -3.1347300395       -7.9193435550
 C         5.0108805547       -4.8894389349       -6.5584172060
 O         5.2671401706       -3.1645424316       -4.5645787346
 O         1.5024729036       -3.8659383916       -6.7426857996
 C         0.9454010432       -5.2499435057       -4.3967608214
 C         0.7426663692       -4.0882885106       -3.4466253806
 C        -0.5239625336       -3.2536118096       -3.4450460702
 C        -0.6621562443       -2.6826881236       -2.0346492891
 C        -0.9048062222       -3.6486714833       -0.8640711791
 O         1.6749763567       -3.7101776540       -2.7705519420
 O        -0.3266889869       -1.4910661850       -1.7557476977
 C        -0.4594675799       -2.0909270195       -4.4529924253
 C        -1.7354530637       -4.2202444601       -3.5322035305
 C        -0.4208281465       -3.3461039381        0.4907577515
 C         1.0783485031       -3.2934645408        0.9208002444
 C         1.5335721656       -4.4341377426        1.9999072133
 C         0.2866929921       -4.4940909527        2.9397696327
 C        -0.1160124501       -3.2463441614        3.8037949257
 C         1.6786885208       -5.6309661720        1.0962679806
 C         2.8690321152       -3.9537079090        2.6418726172
 O         1.8709728594       -2.5026711414        0.5472732969
 O        -0.4321196144       -5.4400464899        2.8996759460
 C        -0.2366196129       -3.7481896458        5.2505153441
 C        -0.7669367130       -2.6526198670        6.1526780844
 C        -2.2266091856       -2.5782439986        6.7400957845
 C        -2.9257656066       -1.6735802502        5.6096526249
 C        -2.8025547315       -0.0607129653        5.9757452964
 O         0.0146641316       -1.7416900149        6.4270562793
 O        -3.5005993678       -2.1100349232        4.6735663880
 C        -3.1141239537       -3.8404272043        6.9729682388
 C        -2.1688556396       -1.8506716765        8.0804677583
 C        -3.3799526067        0.7976484147        4.8624633376
 C        -4.5667856934        1.5604780703        5.3392641632
 C        -5.1201614790        2.8930047514        4.5796514118
 C        -6.6821183281        3.0880106724        5.0051635960
 C        -7.1892402734        4.2964192631        5.8870727989
 C        -4.0625177468        4.1664744613        4.7349951981
 C        -5.1179726761        2.4266503222        3.1544111006
 O        -5.0775371810        1.4457551245        6.4192298644
 O        -7.5285669784        2.2661900328        4.7080320386
 C        -7.1668683508        3.6307032447        7.2615785264
 C        -8.3465431783        4.1552980591        8.1026237734
 C        -9.7802491521        4.6793141922        7.5409583377
 C        -9.7295149255        6.2019744496        7.1837051244
 C        -9.3638583217        7.0020305494        8.3597834191
 O        -8.2775485395        3.9785940987        9.3338210719
 O        -9.9409912125        6.7106430726        6.0486454249
 C       -10.1609246113        3.8044277780        6.2836704416
 C       -10.8257402559        4.3092190782        8.7341093083
 H         9.0487168039        4.8413779915       -8.0382734450
 H         8.7757429880        5.5338961968       -9.7207726851
 H         7.8260643655        6.1923724079       -8.4066737513
 H         3.7742091756        2.6735271253       -7.5996642322
 H         5.4475592199        2.7657726105       -7.0914471503
 H         4.3314724870        6.0443744444      -10.2371657797
 H         6.0592680649        5.7910788265      -10.7349084248
 H         5.8049208419        6.5613612347       -9.2066228719
 H         4.0546167659        3.0741723973      -10.2763637351
 H         6.0090655589        3.1842022771      -10.7205036025
 H         5.4261665273        2.3825854358       -9.3263395306
 H         4.4723488824        4.1540871571       -4.9758492277
 H         2.8637890040        4.0667434397       -5.7038684449
 H         5.6391719460       -0.6151524120       -4.4105506401
 H         4.6280694798       -1.6394628890       -3.2751549057
 H         6.3594360912        1.7149836449       -2.8070377154
 H         6.0239506004        3.0787766177       -3.8169882061
 H         6.0638170214        1.4268577792       -4.7120145945
 H         4.1510609296        3.7757970012       -2.5152416451
 H         2.7101788444        3.0362695558       -2.8032732943
 H         3.5370529562        2.4016306742       -1.4113935190
 H         3.9916934227       -0.7531311327       -6.0097540291
 H         2.6919166265       -1.3492815721       -4.9696134231
 H         2.6039096560       -6.2281450583       -5.4752875021
 H         3.1731438873       -5.0515787864       -4.2009512932
 H         3.4350297905       -3.9971830455       -8.4284546488
 H         4.7515321637       -2.8358600505       -8.3462592235
 H         3.0973749417       -2.3615914740       -8.0768079349
 H         4.5618884755       -5.8150840685       -6.9562198071
 H         5.9567983226       -4.5341502509       -7.0524359579
 H         5.1174456187       -5.2327809355       -5.5184560826
 H         0.3777337681       -5.2361754341       -5.3606329144
 H         0.6379312632       -6.2163533107       -4.0359201616
 H        -2.0282761829       -3.8566289346       -0.8485065051
 H        -0.5847065264       -4.5606704659       -1.2756497635
 H        -1.3293027497       -1.4886526036       -4.4365274058
 H        -0.2258227756       -2.4474022952       -5.4656848380
 H         0.3875662044       -1.4113223237       -4.1558954592
 H        -1.4394566503       -5.1645552213       -3.0820861477
 H        -2.6532086383       -3.9719845139       -3.1352388775
 H        -1.7378815153       -4.4956982665       -4.6105356003
 H        -1.0082453350       -4.1302328436        1.0338823647
 H        -0.8517094913       -2.3911086684        0.6875268640
 H         0.6632475283       -2.4778031937        3.5632641532
 H        -1.0005660034       -2.7669952709        3.4240719761
 H         0.7109123378       -5.9279658587        0.6336669605
 H         2.3559794331       -6.4531457605        1.5967408191
 H         2.2836732870       -5.3920082431        0.1650631607
 H         3.2077384555       -3.0244947444        2.1751682701
 H         2.6574715663       -3.6146985529        3.6672459834
 H         3.5877589897       -4.8270201042        2.6704828821
 H        -0.8966119270       -4.5763351303        5.2564903744
 H         0.6692911788       -4.0999740164        5.7286906373
 H        -3.4312575249        0.0709936340        6.9060084256
 H        -1.7577347127        0.0923987932        6.1137911414
 H        -2.8970510224       -4.4337470724        6.1517485362
 H        -4.1493886562       -3.7716447535        6.9149365550
 H        -2.9070744752       -4.2197601045        7.9232106688
 H        -1.4587026730       -0.9413580104        8.1132907420
 H        -3.1663344151       -1.4745351130        8.2067645597
 H        -1.9070807267       -2.6269846891        8.8578275901
 H        -3.6193736063        0.2402799318        4.0686730528
 H        -2.8030330055        1.6968298237        4.4986624615
 H        -6.5306048269        5.2007457173        5.8613109168
 H        -8.1287516778        4.5493425331        5.4004202315
 H        -4.5492243759        5.0799822788        4.4436642003
 H        -3.5777171981        3.9401735881        3.7596449762
 H        -3.4456799936        4.1038439876        5.6508259848
 H        -5.9186043745        1.7130473745        3.0585772541
 H        -5.3121947825        3.1713404404        2.2821794942
 H        -4.0796001890        1.9774591933        2.8750446114
 H        -7.4291110130        2.5941221325        7.1562345769
 H        -6.2634753700        3.8673148908        7.7530637519
 H        -8.5110923545        7.6164511208        8.2894848683
 H       -10.3291891853        7.6435328750        8.5176911135
 H        -9.2516130345        6.3075946527        9.2118562069
 H       -11.0699519598        3.2827992548        6.3469363295
 H        -9.4178132835        2.9763567484        6.1453882538
 H       -10.3224825189        4.5548344823        5.4996484952
 H       -10.4188145958        3.3272364594        9.0340044463
 H       -10.7308023358        5.1075628739        9.4844093116
 H       -11.7406866344        4.3194040577        8.2150999214
 Na        2.0533862035       -1.6414459444       -1.7177996883
