155

 C         7.8829094239        4.7402245236       -7.9834122040
 C         6.7432119488        3.7299618159       -8.2234459336
 C         5.3028214868        4.3300613127       -8.4600238553
 C         4.6834375855        4.3163050100       -6.9455016407
 C         3.1075742260        4.2336455833       -6.7961771750
 C         5.3940105331        5.8285558451       -9.0393221743
 C         4.3332528745        3.3111384083       -9.5742948526
 O         6.9215980007        2.5405012232       -8.1937106249
 O         5.4359576598        4.5998025584       -6.0422027137
 C         2.5677761551        3.5086769293       -5.5124251714
 C         2.8909377472        2.0372720735       -5.3345619916
 C         3.9562399403        1.7197971365       -4.1084436901
 C         3.9614644380        0.3020230211       -3.6498091870
 C         4.4733752007       -0.8525875248       -4.4554345262
 O         2.5376143095        1.2037695149       -6.1747052359
 O         3.3286928801       -0.0271643298       -2.6734927935
 C         5.5254808897        1.8627517211       -4.7119834839
 C         3.6638082226        2.6078545851       -2.8698548175
 C         3.3895157957       -1.5416638989       -5.2766039337
 C         4.0204526785       -2.8664974433       -5.7573734264
 C         3.4821566299       -3.5651135954       -7.0499582632
 C         2.1539636141       -3.9717779533       -6.5138198477
 C         1.9327896887       -5.2593168852       -5.8069319974
 C         3.3505289482       -2.5027119339       -8.1834896828
 C         4.4861559283       -4.5903120449       -7.5025691645
 O         4.6842943886       -3.5207271089       -4.9896331040
 O         1.1693228231       -3.1764355427       -6.5835765871
 C         0.6397073637       -5.2332768405       -4.8866656337
 C         0.6849659897       -4.0419362638       -3.8859609619
 C        -0.7707655755       -3.2328307467       -3.4096768501
 C        -0.3979464232       -2.6382387247       -1.9940784615
 C        -0.9853062735       -3.2431032510       -0.7251039164
 O         1.7010606888       -3.8039421774       -3.2709817045
 O         0.4282107334       -1.6758825458       -1.9885546450
 C        -0.9959847008       -1.8889061373       -4.2943052475
 C        -1.9584327122       -4.1552230059       -3.5434862991
 C        -0.3762948795       -2.9076246846        0.6911809043
 C         0.8509347405       -3.7487737334        0.8906689474
 C         0.9062506200       -4.7582753603        2.1302628885
 C        -0.2522210662       -4.4680812550        3.2005929429
 C        -0.2662121972       -3.0947794482        3.8897211767
 C         0.8054835267       -6.2588993264        1.5459529691
 C         2.3424965274       -4.4018955915        2.7993457397
 O         1.6869169147       -3.6970106610        0.0767397435
 O        -1.1562268896       -5.2516835295        3.5746001514
 C         0.1087205488       -3.1785401023        5.3683499053
 C        -0.2289048494       -2.0161281255        6.4383009254
 C        -1.6791197646       -1.5090704999        6.7723720893
 C        -1.9460886229       -0.4267478033        5.6149426668
 C        -1.6973440261        1.0315095485        5.8031061360
 O         0.7366272099       -1.4907591372        6.9011236456
 O        -2.4318238803       -0.9149919140        4.6002660186
 C        -2.7028809583       -2.6837541408        6.6732032425
 C        -1.8531284134       -0.9382637350        8.2154643476
 C        -2.7065363480        2.0471154152        5.0546003220
 C        -4.1600792326        1.7213184211        5.4525646116
 C        -5.1249433107        2.3472201042        4.4195788366
 C        -6.5088843610        2.5158032340        5.3055462483
 C        -6.4034992943        3.0549092697        6.7859081535
 C        -4.5823095238        3.6590389441        3.7667160207
 C        -5.4425744613        1.2921540376        3.3141646727
 O        -4.2561450122        0.8753266077        6.3171825226
 O        -7.6235259393        2.3352867521        4.8218948708
 C        -7.6577774247        2.7908062867        7.6607667974
 C        -8.0857863728        4.0500480196        8.4053020003
 C        -9.3796360764        4.7349262629        7.9087737439
 C        -8.8590900007        6.1738413197        7.4094429575
 C        -9.4341985475        7.3045376792        8.2180904766
 O        -7.5576522370        4.4825448435        9.3808874785
 O        -8.1173757877        6.3425517150        6.5011291092
 C       -10.1399503165        4.0911542025        6.7724285330
 C       -10.4635266449        4.6676453027        9.1775331868
 H         8.7628796839        4.2805242256       -7.6935445086
 H         8.1113481780        5.4903420019       -8.6749535218
 H         7.6882204542        5.3104480496       -7.0671009515
 H         3.0095827219        5.3221314414       -6.7467092635
 H         2.6909667705        3.9746234800       -7.7370109697
 H         4.4667720966        6.3820989888       -9.4143764459
 H         6.1682826863        6.0030809838       -9.7587721346
 H         5.6331315717        6.4868344730       -8.1682051591
 H         3.4292225536        3.6752305784       -9.8974056464
 H         4.8594382724        3.0358900735      -10.4240570771
 H         4.2461434401        2.4120489100       -9.0591472971
 H         2.9467004354        4.1645056685       -4.7160062154
 H         1.4482196318        3.5486617229       -5.6783284629
 H         5.2994476274       -0.6104518011       -5.0788614969
 H         4.8294749581       -1.6217706108       -3.6532722572
 H         6.0531542023        1.2100219763       -4.0767041922
 H         5.7644227931        2.9567040099       -4.7412885774
 H         5.6126494350        1.3449293083       -5.7266533178
 H         2.6813690114        2.4089752652       -2.6023492604
 H         4.3221041907        2.4527872592       -1.9828558447
 H         3.6423102636        3.6762485172       -3.0050441302
 H         3.2173440709       -0.9089096739       -6.1300768885
 H         2.5297030866       -1.8690431939       -4.6985978632
 H         1.7795768751       -5.9800030402       -6.6333013511
 H         2.7526517948       -5.4851818464       -5.1936668733
 H         4.0812193942       -1.7272898361       -8.2775643671
 H         2.3401129137       -1.9602398091       -8.3267776103
 H         3.4051410085       -3.1099960953       -9.1205941265
 H         4.0418335645       -5.3194737611       -8.0908234058
 H         5.2585409442       -4.2438478748       -8.1348993104
 H         4.9682151635       -5.0805903471       -6.6234825377
 H        -0.2239664365       -5.3951800899       -5.6070038877
 H         0.6145515949       -6.1127228814       -4.1195871899
 H        -2.1279623912       -2.9628412400       -0.7874213294
 H        -0.7152518961       -4.3050853155       -1.0214110124
 H        -1.8595096310       -1.1922424469       -3.9151293713
 H        -1.1936227056       -2.1675440015       -5.2864506927
 H        -0.0572005552       -1.3757266065       -4.2516050591
 H        -1.7796705524       -5.2180708619       -3.2371040300
 H        -2.8896188317       -3.7098825358       -3.1465386117
 H        -2.1854670152       -4.2395745869       -4.6447890035
 H        -1.2367377883       -3.2828042858        1.3912955375
 H        -0.1851868957       -1.8833972241        0.9000207252
 H         0.3024789461       -2.3186012422        3.3535857771
 H        -1.3898294246       -2.7280211873        3.9610634746
 H        -0.1875736511       -6.8194077160        1.4469084135
 H         1.1365883223       -6.9761053361        2.2800286032
 H         1.4636010418       -6.4964012218        0.6481205188
 H         2.2470969841       -3.9198948591        3.7204160943
 H         3.0097848541       -5.2645920695        2.8262097059
 H         2.8122169708       -3.7396198891        2.0600135802
 H        -0.3075828447       -4.1643272287        5.6222376272
 H         1.2364379527       -3.3135023054        5.4538646444
 H        -1.6549978404        1.2037122258        6.8507293985
 H        -0.6955009659        1.1353648747        5.4955324586
 H        -2.7454945746       -2.9846683445        5.5991092680
 H        -3.6651370495       -2.3899831687        7.1354543707
 H        -2.2406564395       -3.7035533981        6.9379298364
 H        -0.9974713416       -0.4295641100        8.4499072546
 H        -2.7532045375       -0.3056263524        8.2754622515
 H        -1.9691360279       -1.6758393510        9.0275461906
 H        -2.4925186794        2.0780513639        3.9390941210
 H        -2.6020762154        3.0675577182        5.4610596968
 H        -5.5091967863        2.7446171727        7.2662283847
 H        -6.2175934959        4.0900155700        6.6227551409
 H        -5.1629053713        3.8344874157        2.8234023603
 H        -3.5815725401        3.4788209786        3.5911446200
 H        -4.6808674803        4.3962797152        4.5046196623
 H        -5.9193366928        0.4194271827        3.8594627207
 H        -6.1424754125        1.7753004905        2.7390327692
 H        -4.6674836930        0.9010830154        2.8577090599
 H        -8.5439098821        2.3655144298        7.0843140624
 H        -7.3872973938        1.9132754481        8.2575772996
 H        -9.2093347608        8.2544852253        7.7327016558
 H       -10.5082122665        7.0703238665        8.1535622920
 H        -9.2090425521        7.4352373026        9.2034813543
 H       -11.0682075832        4.6911608216        6.7061836987
 H       -10.3523671582        3.0537127853        7.0739893064
 H        -9.5007998619        3.9811988475        5.9314936053
 H       -10.0308773814        3.8897293437        9.7395675289
 H       -10.3844039198        5.5564558602        9.7106586160
 H       -11.4349662898        4.2614269874        8.7633823767
 Na        2.5806702605       -2.1127662060       -2.0407104305
