155

 C         7.0992809736        3.1121706009       -7.3803985983
 C         5.7242419679        3.1498204160       -7.9269963122
 C         4.8395473708        4.5872381075       -8.0323599567
 C         4.2362187846        4.5719043961       -6.6040384602
 C         3.0617584925        3.6426792880       -6.0516657615
 C         5.7572548708        5.8151251102       -8.3274356146
 C         4.0130971647        4.3906691294       -9.1916859538
 O         5.1971198230        2.1366644934       -8.2298387617
 O         4.5842941095        5.4495667114       -5.8538570148
 C         3.1893772984        3.0061562261       -4.6613003596
 C         3.6446366199        1.4911792844       -4.7771350138
 C         4.0680689257        0.7683280076       -3.4560675764
 C         3.8298083915       -0.7184817142       -3.5693475483
 C         4.3549091199       -1.5703154416       -4.7436050014
 O         3.8818415610        1.0198935348       -5.8536775400
 O         3.3129565333       -1.2671630128       -2.6306915810
 C         5.5706217547        1.2065642453       -3.0918769030
 C         3.2252980613        1.3231108026       -2.2193423105
 C         3.3027536290       -1.9740237533       -5.8081751527
 C         3.8334376254       -3.0814211900       -6.8179257944
 C         2.7570157638       -3.6338431146       -7.9014904600
 C         1.3316265841       -3.6788646785       -7.1130281032
 C         1.2719413075       -4.8068520868       -5.9624883007
 C         2.6092684515       -2.5826462826       -9.0956688301
 C         3.2405434944       -4.9915333116       -8.4587775156
 O         4.9600513406       -3.5395667134       -6.9004613451
 O         0.5644095268       -2.8052927980       -7.2540321930
 C        -0.0442852290       -4.9473925220       -5.2169594661
 C        -0.2489988252       -3.9257535054       -4.0646533699
 C        -1.5692637634       -3.3387703570       -3.7703446200
 C        -1.3756890856       -2.7370171833       -2.3651720167
 C        -1.4717827231       -3.6502285442       -1.0727434054
 O         0.7131312363       -3.6337666992       -3.3712227216
 O        -0.9767846309       -1.5222141384       -2.1878353275
 C        -2.1076874025       -2.2262576387       -4.7365849860
 C        -2.7156017464       -4.5018666414       -3.7394908487
 C        -0.8998234734       -3.2494917084        0.3763788835
 C         0.6296387172       -3.8138692686        0.8041186020
 C         0.7601516966       -4.7871049505        2.0941450308
 C         0.1109863294       -3.8288437254        3.3699420685
 C         0.8029194454       -2.4662008156        3.8086447483
 C        -0.0258589321       -6.0699423810        1.8816033077
 C         2.2178046123       -5.1481315332        2.2735995896
 O         1.5725078029       -3.4304216582        0.1447717852
 O        -0.9624286430       -4.0982126872        3.7477447484
 C         0.9783194343       -2.4575486506        5.3519075735
 C         0.7884153683       -1.0791394589        6.1764372205
 C        -0.7632107754       -0.4923561685        6.3247989447
 C        -0.7069310601        0.8612806825        5.4256180318
 C        -1.3491457378        2.3029609673        5.7198723737
 O         1.7244540841       -0.6737981787        6.7909353077
 O         0.0649682749        0.7717172059        4.4756845853
 C        -1.7588044146       -1.4161882041        5.6153762612
 C        -0.9882766604       -0.2329770668        7.8457349435
 C        -2.5238608564        2.6317526786        4.8588044366
 C        -3.7354268656        2.0334587163        5.4681224669
 C        -5.0640744613        1.8511955450        4.6510582028
 C        -6.3636906461        1.4921423993        5.7409358530
 C        -6.4799789908        1.9299115553        7.2329057052
 C        -5.3548032251        3.1881172700        3.9249176941
 C        -4.9547067960        0.7466882224        3.5326295618
 O        -3.6169015897        1.8422141407        6.6633851245
 O        -7.3036938207        0.8323078998        5.3641853568
 C        -7.7588990239        2.8292850607        7.2967809782
 C        -7.5982108399        3.7625841662        8.5797739716
 C        -8.4051206985        5.1666509572        8.5484722524
 C        -7.8965937692        5.9985845832        7.4441946902
 C        -8.5328657859        7.3775756082        7.2154157209
 O        -6.9336071793        3.4630751558        9.5878452893
 O        -6.9848845925        5.6044938903        6.6783565349
 C        -9.9280880899        4.6732150899        8.3335653670
 C        -8.4184495101        5.9675094089        9.9398949137
 H         7.1972311282        2.1028173042       -6.8374768548
 H         7.9754620783        3.0960470699       -8.0839506368
 H         7.3969524613        3.9309590154       -6.7169645924
 H         2.0391750056        4.0216346098       -6.0347200560
 H         3.0803295032        2.7651595160       -6.6635608096
 H         5.1626909273        6.7194617973       -8.2919454251
 H         6.1897329946        5.6934046301       -9.2777955670
 H         6.6109703152        5.8547323404       -7.6132297990
 H         3.1366772922        5.1802981845       -9.3374441046
 H         4.7554359433        4.6176482869      -10.0121590570
 H         3.5779348446        3.3819517025       -9.0964209247
 H         3.7967946653        3.4459062925       -3.8872429672
 H         2.2816057292        2.8746098823       -4.1481136419
 H         5.2123396033       -1.1503690366       -5.3372029949
 H         4.7778788468       -2.4126298899       -4.2187682259
 H         6.1453619111        0.6455964712       -2.2586892496
 H         5.4321928467        2.2329614705       -2.7995064579
 H         6.0581717865        1.2703013414       -4.0632721561
 H         2.1640375558        1.4557181739       -2.6223152405
 H         3.1380603238        0.5686133580       -1.4760638307
 H         3.4933770355        2.1810497149       -1.6523978278
 H         2.8649929837       -1.0035962685       -6.2613663613
 H         2.4202966407       -2.3319465283       -5.3563674098
 H         1.5669250078       -5.8724672805       -6.2785513114
 H         2.0477414481       -4.5805098722       -5.2328771605
 H         3.0520033617       -2.8393983668      -10.1038408316
 H         3.1574521678       -1.7071834289       -8.8640359236
 H         1.5715949900       -2.3441459733       -9.2065402511
 H         2.6628374511       -5.1303576313       -9.4488705995
 H         4.3183147233       -5.0064977268       -8.7281072707
 H         2.9510126089       -5.9012507705       -7.9687316704
 H        -0.9756211008       -4.9378355367       -5.7036179101
 H         0.0019396619       -5.8420817631       -4.5882988731
 H        -2.5351080036       -3.7480644078       -0.9945049709
 H        -1.1316119518       -4.6352226257       -1.4087611031
 H        -3.1382620112       -2.1699699562       -4.6709364870
 H        -1.6692943256       -2.4679077534       -5.7550040885
 H        -1.7016177517       -1.2706770966       -4.4000993156
 H        -2.2777260202       -5.2875429035       -3.1377456633
 H        -3.5524558356       -4.1315407916       -3.1021435111
 H        -3.1730430902       -4.8262343424       -4.6236055178
 H        -1.6296920689       -3.5520376080        1.0021057848
 H        -0.7926251673       -2.1401926754        0.5778387272
 H         1.7717709864       -2.3279934654        3.4630639202
 H         0.1603934963       -1.6625387281        3.4927506084
 H         0.4338080892       -6.8426278411        2.4387115993
 H        -0.2620658566       -6.4788998760        0.9089505686
 H        -0.9945622590       -5.9076883656        2.2461036484
 H         2.8061301975       -4.8232281649        1.4049657904
 H         2.6209593184       -4.8634106842        3.2626483753
 H         2.3117989379       -6.2021237513        2.2541915442
 H         0.3035485850       -3.1757695830        5.7504679747
 H         1.9965317724       -2.8325062874        5.5171166761
 H        -1.7259886447        2.3946849579        6.7743485678
 H        -0.5247960033        3.0439696078        5.4767740390
 H        -2.6185937426       -1.4347853236        6.1925146032
 H        -1.3954381393       -2.3676018078        5.4123251307
 H        -2.1188143551       -1.2142638055        4.6833621229
 H        -0.0890221195        0.3827459975        8.2497440401
 H        -1.9139035244        0.2513682988        8.2070818209
 H        -1.0278289266       -1.2049711409        8.3047349387
 H        -2.3273717729        2.3752993693        3.8004306997
 H        -2.7532156823        3.8318763353        4.8979251012
 H        -6.7451985147        1.0674044283        7.8792729837
 H        -5.7166034717        2.5760480510        7.7585722798
 H        -5.3575247837        4.0539326537        4.7417054297
 H        -6.3555571544        3.3223085324        3.6114692527
 H        -4.6352724511        3.4145636402        3.1105183686
 H        -4.8212853236       -0.2488991139        4.0735067672
 H        -5.8853444668        0.7356118016        3.0152632091
 H        -4.1146605359        1.0227399783        2.8854885125
 H        -7.9688643008        3.3742993144        6.3714174851
 H        -8.6030253023        2.2013666634        7.6000920279
 H        -9.2817768444        7.3226196061        6.4497334707
 H        -9.1172138621        7.7832677200        8.0463350213
 H        -7.7600179966        8.1973485279        6.9681115079
 H       -10.6460039777        5.4131380409        8.0409581768
 H       -10.2274064153        4.0846531035        9.3219589896
 H       -10.0679619420        4.0133174900        7.5348249847
 H        -9.4652451511        6.3509660985       10.0642716063
 H        -8.2781434531        5.2315299127       10.8286820572
 H        -7.6329585534        6.7218916003       10.0761042969
 Na        1.4104286236       -2.0266582139       -1.8085553761
