155

 C         6.1012406606        2.4111592920       -7.9569336513
 C         4.8048388697        3.1503724211       -8.2102000850
 C         4.7425034113        4.6231115484       -7.3515900897
 C         4.2869342479        4.0657144091       -5.8345011036
 C         2.8780256180        3.1975849811       -5.8809417640
 C         6.0774054304        5.3978367759       -7.2387890074
 C         3.4866235298        5.3562656830       -8.0156214805
 O         3.9647468582        2.8691344244       -9.0205845030
 O         5.0336332351        3.9745541820       -4.9147847736
 C         2.9057006799        2.1957408741       -4.5280458194
 C         4.1658597449        1.4353857863       -4.4939690968
 C         4.2159216641        0.3584879683       -3.1613357511
 C         3.8874221263       -1.0563159959       -3.5689379405
 C         4.4013388671       -1.6474021055       -4.8966852779
 O         4.9630306339        1.3324907378       -5.3910003554
 O         2.9651435670       -1.6917293177       -3.1047017236
 C         5.7237077617        0.4286264122       -2.7313261248
 C         3.3392519935        0.8556326365       -1.9559255579
 C         3.4364900975       -1.6772377518       -6.1429306200
 C         3.1861633499       -3.1012115565       -6.6422287558
 C         2.1499338755       -3.3410986626       -7.9057658101
 C         0.7913725662       -3.6562018519       -7.0837241652
 C         0.5171627560       -5.0771372060       -6.4652772564
 C         1.9651192124       -2.0603309570       -8.8376492181
 C         2.4485250067       -4.6196051641       -8.7451320414
 O         3.7342152131       -4.0892122005       -6.2468441981
 O         0.0401412072       -2.7423361199       -6.8114372074
 C        -0.8281404302       -4.9848007595       -5.6806834978
 C        -0.7496175910       -4.0591241903       -4.3750245384
 C        -2.1706699934       -3.6235211498       -3.7510841564
 C        -1.9083036463       -3.1090130212       -2.3497918555
 C        -1.8173260956       -4.2811414309       -1.2202483510
 O         0.3274248057       -3.7331187301       -3.8253335952
 O        -1.3888913889       -2.0594504740       -2.0859353678
 C        -2.7585159573       -2.5153061220       -4.6023833208
 C        -2.9913473982       -5.0115474917       -3.7625815909
 C        -1.5905544944       -3.6413535559        0.2314534041
 C        -0.1419842689       -3.6800907663        0.4585187750
 C         0.5425917086       -4.0418909122        1.8933721438
 C         0.0022848478       -2.9671975648        2.8734195838
 C         0.9003417499       -1.8499381556        3.3987022147
 C        -0.0830726303       -5.4358263764        2.3299450036
 C         2.0674651716       -4.0734894493        1.7716790435
 O         0.5552155952       -3.3367638423       -0.4772736296
 O        -1.1003915517       -3.1322812439        3.2694961595
 C         1.5278653118       -1.9791726120        4.7525437184
 C         1.5591878313       -0.4982237269        5.5884845045
 C         0.2862008248        0.1148655645        6.0836800000
 C        -0.3016413958        1.0968208195        4.9680001295
 C        -0.8732413876        2.4799536543        5.2740021150
 O         2.6206885788       -0.0654826021        5.8336654708
 O        -0.3562123475        0.7599119872        3.7691257514
 C        -0.8093708094       -1.0236683502        6.2496162880
 C         0.6944169556        0.8473762034        7.4147870965
 C        -2.2543927350        2.8257718672        4.6080197620
 C        -3.2412901384        1.9652538052        5.3440423924
 C        -4.6848390170        1.8505067402        4.9251155623
 C        -5.5792306646        1.5387748925        6.1981045722
 C        -5.6165549183        2.5148240299        7.4817679287
 C        -5.1842359958        3.1504641078        4.3701473106
 C        -4.8755804052        0.6608968670        3.9451083667
 O        -2.9066816290        1.2380220692        6.2689578073
 O        -6.1664305009        0.4453863253        6.1701540409
 C        -7.0798871303        2.5216112354        7.9260024593
 C        -7.8394985013        3.7331411792        8.8179529691
 C        -7.4721489137        5.2449409820        8.7842819468
 C        -7.4723227985        5.7903030240        7.4089372642
 C        -8.4326903108        6.9589815993        7.0645724599
 O        -8.7837914256        3.3474792053        9.5156028443
 O        -6.7503261224        5.1854130620        6.5787857203
 C        -8.5589402069        6.0699797537        9.6595638543
 C        -6.0934680101        5.2241140959        9.5173260097
 H         6.1228790455        1.2510550362       -8.0740480152
 H         6.9164139141        2.9867956955       -8.5337871380
 H         6.4649027596        2.6273037741       -6.9267333430
 H         1.8620564219        3.6265633542       -5.7963526217
 H         3.0207250400        2.5849930144       -6.7447323830
 H         5.7748144897        6.3229741433       -6.7673444218
 H         6.4975117811        5.5484809279       -8.1516058935
 H         6.7158012729        4.8407351845       -6.5217770159
 H         3.4878496462        6.5146345689       -7.6772277885
 H         3.5295883116        5.3727127486       -9.1726809280
 H         2.5262233863        4.8819458424       -7.6539979044
 H         2.8046406231        2.6856091022       -3.6291485330
 H         2.1503011599        1.4599211526       -4.5592954969
 H         5.3463582654       -1.2241350525       -5.1842132215
 H         4.5643452515       -2.7484886090       -4.6407802116
 H         5.9608606599       -0.1374669395       -1.7800587081
 H         5.9467217735        1.4264982267       -2.4458456857
 H         6.3805480957        0.0256693882       -3.5058424919
 H         3.8876224713        1.7096641435       -1.4917247442
 H         2.3103888615        1.1005296506       -2.2442871843
 H         3.2891687419        0.1209788820       -1.1912026819
 H         3.7848574979       -1.0810736091       -6.9592615100
 H         2.5070556343       -1.1546472287       -5.8811957110
 H         0.3158549228       -5.7412956932       -7.3121946192
 H         1.4512724329       -5.4675085823       -6.0539961160
 H         0.8524080923       -1.8195418637       -8.6694904684
 H         2.0869270003       -2.4071839880       -9.8514439612
 H         2.6643701230       -1.2846993825       -8.7403186571
 H         1.6158287827       -4.4682002484       -9.5268868425
 H         3.3904616303       -4.6294523079       -9.3330894683
 H         2.3923526702       -5.5383227251       -8.2397498601
 H        -1.7214875633       -4.5691955171       -6.1936856390
 H        -1.0062896744       -5.9602663279       -5.0801598166
 H        -2.7404377362       -4.8736818896       -1.1560226642
 H        -1.0331219526       -4.9585197674       -1.3257370871
 H        -3.7617010619       -2.7310891986       -4.9098630598
 H        -2.1448677615       -2.3731307336       -5.5616811217
 H        -2.6114610125       -1.6126189242       -3.9892026697
 H        -2.4259736556       -5.8883994296       -3.4302753944
 H        -3.8067115336       -4.9951046869       -2.9887262090
 H        -3.3543097264       -5.2678157380       -4.7217439908
 H        -2.1069240524       -4.0694609453        1.0379081348
 H        -1.8613579215       -2.5512730764        0.0913448619
 H         1.6042559701       -1.7368397209        2.6705129788
 H         0.2795602080       -1.0278690333        3.2902381794
 H         0.3928141543       -6.2493320918        1.8257085605
 H        -1.1150436274       -5.4574217520        1.9728559460
 H        -0.0978873021       -5.4385246444        3.3669954600
 H         2.3331428573       -3.5439331130        0.9111596830
 H         2.6008005130       -3.5961141169        2.5989139455
 H         2.3470320987       -5.1104315721        1.6958253438
 H         1.1026113330       -2.6764707240        5.4419789986
 H         2.5413243138       -2.3266037808        4.7151220009
 H        -1.0909135125        2.6607730974        6.3973929549
 H        -0.0110241914        3.1461051919        4.9271297885
 H        -0.6702228616       -1.7809455616        5.5421019771
 H        -1.7336944952       -0.5692130349        6.0341741179
 H        -0.6506113508       -1.4299469344        7.2194667314
 H         1.1951924618        1.8507288087        7.1629084622
 H        -0.1431072929        1.1796130448        8.0609116652
 H         1.4511044463        0.3273029965        7.9868753872
 H        -2.3390298428        2.5182520515        3.6009780839
 H        -2.4875953951        3.8590521405        4.6204592082
 H        -5.0388717132        2.0028480908        8.2882587824
 H        -5.1668411257        3.5141017219        7.2901391955
 H        -5.4442095759        3.1563744926        3.2373411127
 H        -4.6677826956        3.9822215991        4.5850462028
 H        -6.1269621490        3.4995442274        4.6766672974
 H        -4.5214800491       -0.3622614238        4.2181769293
 H        -5.9167828996        0.6222720114        3.9258746931
 H        -4.5380475252        0.9542709612        3.0252045400
 H        -7.6504642368        2.3705556906        6.9839156244
 H        -7.1371792819        1.5516138168        8.3743124745
 H        -8.5057737991        7.2587098785        6.0279929454
 H        -9.4644476424        6.7403640163        7.2429954557
 H        -8.0187010175        7.9053406948        7.5616421350
 H        -8.2963524125        7.0869417189        9.9274057637
 H        -9.0053759139        5.6254287723       10.6819785236
 H        -9.3972080208        6.1264745937        9.0622214234
 H        -5.7612557659        4.1681570264        9.7510883339
 H        -5.2399902164        5.6449557374        8.8727305781
 H        -5.9075471924        5.7875729667       10.4506775330
 Na        1.1854058995       -2.3273436027       -2.1268550287
