155

 C         1.4259253339        5.5607828908       -4.9587914558
 C         2.3664046247        4.6167074783       -5.6281285244
 C         3.7323151218        4.1099229325       -5.1381034782
 C         3.4877477068        2.5784230723       -4.5766763696
 C         1.9701131169        1.8280279129       -4.5649064257
 C         4.7091482205        3.7345961521       -6.3398170880
 C         4.3589657135        5.0408241809       -3.9754057615
 O         1.9085866576        4.1253272175       -6.6733287322
 O         4.4599322085        2.0268666423       -4.0753707245
 C         1.9017460784        0.3889875554       -3.9369324617
 C         3.0059815576       -0.5629296513       -4.5705413791
 C         3.6973649091       -1.5882764897       -3.7384149018
 C         2.5897327313       -2.6797827494       -4.0057667054
 C         2.7319946575       -3.5952944107       -5.2340527907
 O         3.2760077441       -0.4228417253       -5.7256489413
 O         1.5638909449       -2.6870347227       -3.3748889661
 C         5.1114525989       -1.8881581072       -4.3037046362
 C         3.8622209468       -1.3531435317       -2.1873310055
 C         1.8444956713       -3.2618030296       -6.4781357572
 C         0.4182869183       -3.9312798847       -6.5372922693
 C        -0.5264467786       -3.5935491869       -7.7710507529
 C        -1.8207546881       -2.8337821899       -7.0591252882
 C        -2.8746078049       -3.8877883863       -6.6137409763
 C         0.1683121853       -2.5519141507       -8.6692349141
 C        -0.7949984813       -4.8900752962       -8.5196282701
 O         0.1130601395       -4.8788176954       -5.7961692884
 O        -1.9680042605       -1.6589495743       -7.0890151594
 C        -3.6676124880       -3.6662686258       -5.3610101316
 C        -2.9760523113       -3.8541991682       -3.9471401056
 C        -3.5681050811       -3.0220766734       -2.7345611324
 C        -2.6891606025       -3.5664359008       -1.3852475325
 C        -3.0552348915       -4.9962170809       -0.8052005676
 O        -2.0658520255       -4.6927120166       -3.8449851970
 O        -1.7712851112       -2.9784522055       -0.9355335524
 C        -3.3142255489       -1.5401848636       -2.8546837007
 C        -5.0041311113       -3.4378425875       -2.6178315321
 C        -2.1096730555       -5.3526000480        0.3699085552
 C        -0.6708921258       -5.4078258650       -0.0687883889
 C         0.4984758478       -4.8483896110        0.9647790844
 C        -0.0387446289       -3.3592648838        0.9533422531
 C         0.6763273718       -2.1929922288        0.2980629228
 C         0.4661244772       -5.3557135564        2.3840657241
 C         1.9053005254       -4.9057945775        0.4070266908
 O        -0.3827328614       -5.6306964441       -1.2728349023
 O        -0.9432323289       -3.1419346638        1.7249987995
 C         0.0550778073       -0.8476115653        0.6925231499
 C         0.8047282817        0.3279095066        0.2331591769
 C         0.6851501477        1.7807119812        0.9315273147
 C         1.2734302533        1.7132338152        2.4395833330
 C         0.8191957038        2.9229458201        3.2918887017
 O         1.6089837134        0.2008534959       -0.6514206935
 O         2.0090530005        0.8544168894        2.8237225236
 C         1.2127690000        2.7792066220       -0.1040584685
 C        -0.8220953106        2.0612324927        1.0801290901
 C        -0.6641977181        2.8777688526        3.7937250115
 C        -0.8668036583        3.5354303809        5.2650299889
 C        -1.4706013484        2.7468972307        6.4554137473
 C        -1.4923905178        3.6736725391        7.7693848051
 C        -2.2251494587        4.9508240274        7.5951230221
 C        -2.9203930371        2.0864209369        6.0559069942
 C        -0.5485255195        1.5036833954        6.7498896035
 O        -0.8210513952        4.7556403280        5.3382555415
 O        -0.7793617463        3.3658315021        8.6980412986
 C        -2.6868449835        5.5976006004        8.9484504860
 C        -3.6245082546        4.5781091607        9.6402408904
 C        -4.7750390140        5.3595241378       10.6376365582
 C        -4.1670548739        6.5471357333       11.4336080851
 C        -3.1921845077        6.1720862330       12.5058549294
 O        -3.7249487989        3.3775569441        9.3645349867
 O        -4.4139635526        7.7020586511       11.0985462682
 C        -5.7933822653        5.9346748020        9.6128883120
 C        -5.5380023425        4.3826180625       11.6557332885
 H         2.0903650913        6.4519705001       -4.9316106470
 H         0.5791380909        5.9032854317       -5.6218046085
 H         1.1632149321        5.0948445856       -3.9151162702
 H         1.4217616699        2.4548385876       -3.8137031222
 H         1.5654770879        1.8583298972       -5.6072326855
 H         5.3699362079        3.0490081383       -5.9143029194
 H         5.2918379875        4.6325653145       -6.7395776488
 H         4.0946785465        3.2980356446       -7.1731321682
 H         5.1365125675        4.4427296816       -3.5366440974
 H         4.9607506099        5.8030264957       -4.4194068616
 H         3.6479923401        5.4956652571       -3.3043459757
 H         2.0507649507        0.2637719298       -2.8129057907
 H         1.0254173267       -0.1735165517       -4.1339962698
 H         3.7079975221       -3.5385792562       -5.5779939050
 H         2.5840611997       -4.6471259263       -4.8640409529
 H         5.6160614324       -2.4545951550       -3.5257232743
 H         5.6899657801       -0.9733252176       -4.4006769237
 H         5.1194760304       -2.4465984013       -5.2305223013
 H         2.9041240101       -1.0149167050       -1.7516587607
 H         4.0367485875       -2.2686980130       -1.6508660088
 H         4.5912414465       -0.6699782938       -1.6586903942
 H         2.3141524010       -3.5914756139       -7.4943410745
 H         1.7105640844       -2.1815060753       -6.6486694705
 H        -3.5387445176       -3.9660228099       -7.4290450670
 H        -2.3631348029       -4.8517582753       -6.6472702264
 H         1.0977333699       -3.0323570949       -8.9657373074
 H         0.3542381254       -1.6081641295       -8.0775867148
 H        -0.4778903423       -2.3855330501       -9.4787718512
 H        -1.3244619013       -4.5011772927       -9.4122135052
 H         0.1605020467       -5.3008317826       -8.7592492082
 H        -1.3760925775       -5.6254252110       -8.1000260780
 H        -3.9189094594       -2.5584652746       -5.3712826293
 H        -4.6132396971       -4.3239218837       -5.4504382158
 H        -4.0463309439       -4.8510773781       -0.4369050415
 H        -2.9213557092       -5.7442481957       -1.6188336780
 H        -3.0559415714       -1.2056191908       -3.8732147537
 H        -2.5784140618       -1.2155140434       -2.0694563986
 H        -4.2092078143       -1.0887126847       -2.5053809397
 H        -5.1156470819       -4.4841827688       -2.4577450309
 H        -5.3246355684       -2.9904525213       -1.6762170478
 H        -5.6101704361       -3.2849956188       -3.4754761704
 H        -2.2860450971       -6.2609384296        0.7415841565
 H        -2.0937360388       -4.6005114226        1.1983528365
 H         1.7053096813       -2.2979410485        0.7253504333
 H         0.6618346094       -2.2491591857       -0.8443148284
 H        -0.4551170309       -5.3000396594        2.9623657164
 H         1.1944811878       -4.8001325676        2.9948606712
 H         0.6441103891       -6.4672358062        2.4197420695
 H         1.9822983283       -4.1029751556       -0.3848719427
 H         2.5851185915       -4.5079967378        1.2355033842
 H         2.2301566110       -5.8421757610       -0.0507625312
 H        -1.0255818285       -0.6949412954        0.3418957852
 H        -0.1059645465       -0.6841407075        1.8095332058
 H         1.5282995569        2.9221853293        4.1587721901
 H         1.0207172993        3.7748590269        2.8150767180
 H         2.1197836071        2.3837126216       -0.4691285147
 H         1.6056019983        3.6347926029        0.3844751553
 H         0.4297964967        3.0119977041       -0.8344989104
 H        -1.2954101384        1.4421130131        1.9233245541
 H        -0.8602478043        3.0993370816        1.3110873577
 H        -1.2930523489        1.9217131166        0.1278999810
 H        -1.1057680080        1.8210981683        3.6946099154
 H        -1.2770575313        3.5229744732        3.2105489730
 H        -1.6502520561        5.7505086685        7.2231496208
 H        -2.9465035091        4.9815536665        6.8186239187
 H        -2.6773331286        1.0486128422        5.6262486714
 H        -3.4751149180        2.7648644263        5.3318819540
 H        -3.3441485307        1.9004309717        6.9501078195
 H         0.4132920763        1.6415942877        6.4831836092
 H        -0.4620102097        1.1860985557        7.8418438625
 H        -0.9133127402        0.6421895971        6.3537843386
 H        -1.7945013282        5.6065904375        9.6005674665
 H        -3.1304942991        6.5654377604        8.8278325701
 H        -2.7534434714        7.0512029187       12.9641968488
 H        -3.7416160190        5.6197011402       13.2483284596
 H        -2.4097077556        5.4530186376       12.0730094319
 H        -6.6687955268        6.4096196932       10.0511376473
 H        -6.3203156483        5.1602001000        8.9805155622
 H        -5.3896860704        6.7540174399        9.0653680222
 H        -6.5240062310        4.1253668148       11.1457530630
 H        -4.8473558797        3.5627332739       11.9748935379
 H        -5.6956955617        4.8012175451       12.6793506847
 Na        0.0925893406       -4.5649856092       -3.3964004194
