155

 C         2.1928670989        6.3073413459       -5.1801640143
 C         2.0347650558        4.7400661905       -5.3353927072
 C         3.4961969952        3.8596523769       -5.3013019097
 C         3.0577547119        2.5731069868       -4.6550172420
 C         2.4609161565        1.2476876325       -5.5786260444
 C         3.9109563426        3.7341886549       -6.7135882114
 C         4.6495421403        4.5046390103       -4.3392962727
 O         1.0223891087        4.1311685176       -5.5184513916
 O         3.2144088332        2.4380286462       -3.5057849202
 C         2.4213181915       -0.0346594516       -4.7817763362
 C         3.6209489606       -1.0008936501       -5.0341736365
 C         3.9740133489       -2.0849953178       -3.9417419477
 C         2.7900274417       -2.9827259297       -4.1207631758
 C         2.4488078718       -3.6149195184       -5.5285830251
 O         4.2692394222       -0.9479339444       -6.0762772679
 O         1.8922687868       -2.7950477553       -3.3465356943
 C         5.4047122031       -2.7286154466       -4.3466410433
 C         3.9689869711       -1.4304634983       -2.5977737000
 C         1.1698423606       -3.0650521270       -6.0516606918
 C         0.1263652097       -4.1150762484       -6.4280074168
 C        -0.8739564900       -3.8792203423       -7.5964766392
 C        -2.0325287602       -3.0205502559       -6.7910627448
 C        -3.3276687886       -3.8917376731       -6.4616675715
 C        -0.1502821959       -3.0017643218       -8.5925932111
 C        -1.1980837992       -5.1542522679       -8.2178940617
 O         0.1808723859       -5.2203279164       -5.8852824443
 O        -1.9665764852       -1.8426045583       -6.6225075235
 C        -4.2055330800       -3.7018533517       -5.1280406741
 C        -3.3613184192       -3.3252438488       -3.9183148180
 C        -4.1614339926       -2.9506122608       -2.5014822134
 C        -3.2631433324       -3.5157295784       -1.4070096027
 C        -3.0120773168       -4.9898813106       -1.3109241429
 O        -2.1398170934       -3.3756275146       -3.7795340045
 O        -2.7358082850       -2.7789992864       -0.5974002147
 C        -4.2819780800       -1.4196138760       -2.5908915445
 C        -5.5688105458       -3.6235965116       -2.2916989572
 C        -2.0357345162       -5.4864431730       -0.2628781967
 C        -0.5901952077       -5.0622890725       -0.5361123247
 C         0.4689533514       -4.8749345583        0.5915351887
 C         0.2337787600       -3.3823017212        0.9953273778
 C         0.7907451469       -2.3183691271        0.0244818728
 C         0.0915084577       -5.7242697458        1.7713712465
 C         1.8999821868       -5.2181936898        0.1292092317
 O        -0.2608977372       -4.9461142527       -1.7455105659
 O        -0.4761944551       -3.1934873668        1.9517795006
 C        -0.2210916928       -1.0845882602        0.2863344993
 C         0.2567242512        0.2227076822       -0.2986944124
 C         0.0276907048        1.5296274045        0.6391042457
 C         0.5126044860        1.4549626744        2.2374201198
 C         0.2321245922        2.6606653726        3.0724402121
 O         0.5948363918        0.3353510214       -1.4821986996
 O         1.0031839777        0.4445362359        2.6595004289
 C         0.9856846755        2.6553096826        0.1769935254
 C        -1.4525875826        1.8985051168        0.4577904265
 C        -0.0499759303        2.1759808067        4.5028480362
 C        -0.6529769292        3.3655871826        5.5312286312
 C        -0.5037484333        3.2119078299        7.1032883868
 C        -0.5024083796        4.6975286814        7.7537082448
 C        -1.8284307442        5.4751779377        7.6901375750
 C        -1.7383771692        2.5559881562        7.6685940196
 C         0.7446460796        2.3178770171        7.5387753501
 O        -1.3165314387        4.2431359800        5.0437993718
 O         0.5314836818        5.1914491971        8.0824523934
 C        -2.0531571850        6.2327436786        8.9961685657
 C        -2.7412693449        5.3826585766        9.9581673166
 C        -4.1287618165        5.6018701416       10.5144801548
 C        -3.9506193527        5.8272804199       12.0577498779
 C        -3.1952795211        4.8912310831       13.0224405447
 O        -2.2332249619        4.3433399927       10.3148259373
 O        -4.5026948518        6.7823222383       12.5226785581
 C        -4.9635492876        6.7881353349        9.9941821970
 C        -5.0121596328        4.2846815317       10.4947667925
 H         3.2645110267        6.4851983279       -5.4617716663
 H         1.4660385058        6.6331684395       -5.9053544581
 H         1.7752008178        6.7507406427       -4.3276113814
 H         1.4128086662        1.5969728982       -5.8511350988
 H         3.0657284045        1.1840126339       -6.5181156472
 H         4.7282848324        3.0234345728       -6.6363207075
 H         4.2201720950        4.6769983367       -7.1269894417
 H         3.0313428304        3.2604114139       -7.1958856868
 H         5.4258006803        3.7525330694       -4.0534348574
 H         5.1489508470        5.3212211337       -4.9536583008
 H         4.2279339702        4.7465466257       -3.3414456098
 H         2.3208873253        0.1630673480       -3.6522523517
 H         1.5894471820       -0.6594241612       -5.0718739262
 H         3.2352194871       -3.5202010993       -6.3279428894
 H         2.3748454138       -4.6697590062       -5.4739970239
 H         5.8196452910       -3.2287612663       -3.5256823501
 H         6.0432065266       -1.8598357134       -4.7075338633
 H         5.2539546940       -3.4569580791       -5.1701129976
 H         3.0801106405       -0.9321517035       -2.2173409431
 H         4.2446942987       -2.0433466730       -1.7574674921
 H         4.6437378989       -0.5611770926       -2.6013014073
 H         1.1618534334       -2.3465162574       -6.9561865339
 H         0.6950153392       -2.4314404500       -5.3079642930
 H        -3.8151961124       -3.8574047715       -7.4283090399
 H        -2.9497746479       -4.8963118500       -6.5163850275
 H         0.8545360371       -3.4540189190       -8.7459370628
 H        -0.1789114550       -1.9985744610       -8.2007647663
 H        -0.6218814317       -3.1105934635       -9.5264455794
 H        -2.0960771138       -5.1133619273       -8.7523935756
 H        -0.5359263295       -5.2200901225       -9.0723526516
 H        -1.1714409730       -6.0556217509       -7.5168583855
 H        -4.8791119002       -2.8480781098       -5.2746537382
 H        -4.7369154424       -4.6278802503       -4.8526316387
 H        -3.9934027974       -5.4831143326       -1.2955246407
 H        -2.5790040652       -5.2425868922       -2.3291162529
 H        -3.9887901594       -0.8932791518       -1.6843465027
 H        -5.2525396025       -1.1992257075       -2.8094422493
 H        -3.6445281884       -0.9765486550       -3.4095669298
 H        -5.5025231307       -4.7079831884       -2.3034081105
 H        -6.0545678924       -3.2893870295       -1.3167522585
 H        -6.3073099876       -3.1858154592       -2.9073992120
 H        -2.0185851552       -6.5618397439       -0.1921340583
 H        -2.3933504209       -5.2476043843        0.7409178659
 H         1.7325625472       -1.9539544900        0.2839514876
 H         0.8050064710       -2.6033190936       -0.9964915078
 H        -0.8713315160       -5.4059707867        2.1424285441
 H         0.7326838315       -5.6134938819        2.6519628485
 H         0.0634677311       -6.7823109172        1.6293784151
 H         2.2418272208       -4.5809674416       -0.6332364580
 H         2.5814416705       -5.1015997450        0.9849198367
 H         2.1215977730       -6.2438396589       -0.2219353015
 H        -1.2018130220       -1.2544902433       -0.0947253677
 H        -0.2628512902       -0.8992923178        1.3483358024
 H         1.0322092117        3.3497042951        3.1140558652
 H        -0.6023557943        3.1063894336        2.5443292508
 H         1.9304284453        2.1711482568       -0.0889185497
 H         0.9358883328        3.5071566537        0.8869540000
 H         0.6702487109        3.0430901629       -0.7570799471
 H        -2.2095510902        1.1593300722        0.7911687137
 H        -1.5597866038        2.8421928162        1.0054112682
 H        -1.6753656771        2.1509886058       -0.5737683167
 H         0.9122672611        1.8308130641        4.9467448351
 H        -0.7619551953        1.2919378482        4.4767645255
 H        -1.9364390389        6.2969089115        6.9544397710
 H        -2.6488845510        4.7292927971        7.6097116388
 H        -1.5922745512        1.4900120743        7.8471792983
 H        -2.6420970449        2.6204520383        7.0918375022
 H        -1.9146924610        3.1446144138        8.6606947101
 H         1.5279040699        2.2994671263        6.7186184269
 H         1.1741935792        2.6828417337        8.3728596237
 H         0.5494848446        1.2550405250        7.5631856533
 H        -1.1027368399        6.6375345950        9.3706445757
 H        -2.5802845343        7.1352223343        8.7501988302
 H        -2.2274468654        5.2062457008       13.2695668401
 H        -3.8875341159        4.8155386313       13.8805562363
 H        -3.0165617764        3.9463292358       12.5981536042
 H        -5.8355014014        6.9325575382       10.7096838917
 H        -5.2509983512        6.7667075587        9.0104510502
 H        -4.3501515595        7.6923970661       10.0578949976
 H        -5.4957163349        4.1335808087        9.5743500709
 H        -4.4546752616        3.4277062066       10.5719173710
 H        -5.7764503399        4.4132697128       11.2020698285
 Na        0.1498261030       -4.3900027531       -3.6861908091
