155

 C         1.0352528687        5.7949607281       -4.8021898463
 C         1.8679085271        4.6323724134       -5.4372244416
 C         3.4556641439        4.6418016438       -5.2163747629
 C         3.9462733629        3.1076819077       -4.9218307119
 C         3.1983098844        1.8525751179       -5.6509095276
 C         4.1657857430        5.1510053391       -6.4694865937
 C         3.7954959646        5.4991845588       -4.0519935006
 O         1.2497491772        3.8197740756       -6.1385836476
 O         4.9018745430        2.9520907853       -4.1451939290
 C         3.6784132545        0.5083410295       -5.1392764020
 C         3.0938797539       -0.6386260882       -5.8614370483
 C         2.9427493615       -2.2987990502       -5.1054992916
 C         1.4203919788       -2.5596203122       -5.1955953800
 C         0.9261077401       -2.7120406645       -6.5537750605
 O         2.6657341920       -0.6169081457       -6.9986041683
 O         0.8733583009       -2.5932271059       -4.1084156516
 C         3.8788135283       -3.2376850430       -5.9201968526
 C         3.3641406554       -2.0748682631       -3.6722104522
 C        -0.5934936284       -2.5940381651       -6.9557710998
 C        -1.4064779798       -3.8764829924       -6.4561347358
 C        -2.0872903024       -4.7813957807       -7.4889411384
 C        -3.6103390214       -4.5439320845       -7.0146031004
 C        -4.3246863682       -5.3350922268       -5.8605999972
 C        -1.9771505562       -4.2551656976       -8.9138151188
 C        -1.6936281002       -6.2024667230       -7.2974917914
 O        -1.5037649672       -4.1303468383       -5.2786385434
 O        -4.0445112627       -3.5379265942       -7.5587026213
 C        -5.4494441141       -4.4433885009       -5.2711939936
 C        -4.6330781274       -3.2519083511       -4.4643808448
 C        -5.1938106757       -3.0185444755       -2.9039559615
 C        -4.0300417329       -3.3604370957       -1.8543848710
 C        -4.0129191225       -4.8074577787       -1.3065060382
 O        -3.6909584314       -2.6756620059       -4.8955697262
 O        -3.2095090484       -2.5584509502       -1.4640121418
 C        -5.6079449691       -1.5790091315       -2.7161848943
 C        -6.2942689574       -4.0157806072       -2.6561348272
 C        -2.8418876535       -5.0099464935       -0.2207315745
 C        -1.4380521580       -4.5483920331       -0.5674669205
 C        -0.4247057470       -4.9251567033        0.6177373007
 C        -1.1134760767       -4.6724844840        2.0077113101
 C        -0.4333365024       -3.5451493005        3.0919795478
 C        -0.3019661629       -6.5175472991        0.6928292768
 C         0.9672682962       -4.2088935762        0.6278912059
 O        -1.1308164904       -4.0376817492       -1.6564520741
 O        -2.0497475607       -5.2964749610        2.4897356183
 C        -1.2487684738       -2.1661404380        3.2306963458
 C        -0.4980520772       -1.0656039336        2.4898123675
 C        -0.9234899520        0.3564373646        3.0832344590
 C         0.2759728148        1.2966467222        3.6522593145
 C         0.9060168459        2.3584260735        2.7436258344
 O         0.1559647900       -1.1767895713        1.4870186105
 O         0.7034398844        0.9622460075        4.6779659583
 C        -1.6793691925        1.1743616525        1.8923774727
 C        -1.9600341344        0.3333115177        4.2947236574
 C         1.7729006825        3.3954147231        3.4715020628
 C         0.9286154126        4.2878746132        4.3794322396
 C         1.7140611125        5.2989471019        5.0272880612
 C         0.8252640966        5.9955479648        6.3912947571
 C         0.2425078829        5.1597653189        7.5284527662
 C         2.9173046300        4.6428365485        5.8017039673
 C         2.0371427894        6.3846348145        4.0040499283
 O        -0.2462250747        4.0532502323        4.5697966761
 O         0.9225840944        7.1669086995        6.4141022792
 C         0.0283810464        6.0847562082        8.9042417664
 C         0.2958461504        5.1157212282       10.0941345650
 C        -0.1260426929        5.5536027396       11.6973273298
 C        -1.2660603504        4.4074509139       11.8604961520
 C        -1.0816721054        3.4262497645       13.1191668605
 O         0.8923421384        4.1129943342        9.8773828404
 O        -2.2024489818        4.4413993765       11.0759408016
 C         1.1474593820        5.4586106335       12.5764684187
 C        -0.5136177267        7.0473002122       11.5696331389
 H         0.7270599650        6.3823513200       -5.7153050552
 H         0.0888868242        5.3639898248       -4.4202056838
 H         1.5591616668        6.4269000557       -4.1297934398
 H         2.0646163289        1.9404967905       -5.4473168537
 H         3.3468361432        1.9442664395       -6.7916684001
 H         5.1015911521        4.7473682043       -6.4251813507
 H         4.3284083641        6.2270795604       -6.5072570549
 H         3.7761682755        4.8377665877       -7.4503533501
 H         4.7818561584        5.8610841420       -4.1282706568
 H         3.3972317505        6.4437288671       -4.1984225429
 H         3.5983104840        5.0119550120       -3.1157785793
 H         4.7650851427        0.4607142740       -5.3084717814
 H         3.4889411646        0.3165155617       -4.1216482296
 H         1.5156106516       -2.1628407413       -7.3115113006
 H         1.0313374042       -3.7518760411       -6.8079217441
 H         3.8658375308       -4.2263729623       -5.5822371013
 H         4.7956967219       -2.6495525145       -5.6545567220
 H         3.8216432632       -3.2405278116       -6.9633744958
 H         2.5881244747       -1.5667446997       -3.1685589837
 H         3.6562996660       -2.9554356424       -3.0552332986
 H         4.1628962697       -1.4156847664       -3.3568548450
 H        -0.5735443078       -2.4372138286       -7.9688676819
 H        -1.1094780722       -1.7671287416       -6.3276540251
 H        -4.5729957594       -6.3024779801       -6.2797474008
 H        -3.6534202700       -5.6805200910       -5.0809588582
 H        -1.8911839489       -3.2458739386       -8.8899153614
 H        -2.9869730183       -4.4149945967       -9.3525188175
 H        -1.4107288589       -4.6379409251       -9.7479127744
 H        -2.4464612420       -6.8178768357       -7.7343872278
 H        -0.6940184795       -6.4606632033       -7.6453443182
 H        -1.5708042225       -6.4678290152       -6.1600258590
 H        -6.0280610990       -3.8967404095       -6.0500587590
 H        -6.1074508089       -5.1139509728       -4.5854642770
 H        -4.8077558012       -5.2811792586       -0.7578296956
 H        -3.7225605737       -5.6990931973       -1.9043013341
 H        -6.2785597880       -1.2073452961       -3.6064650751
 H        -4.7930109080       -0.8810523490       -2.6805637674
 H        -6.2128429668       -1.4516567523       -1.7866723167
 H        -6.0782686884       -5.0425381305       -2.8004562548
 H        -6.6557595303       -4.1468651556       -1.5982022545
 H        -7.1640828795       -3.7428427596       -3.2256150438
 H        -2.8180672208       -6.1657814281       -0.1585419447
 H        -2.9773493343       -4.7348145552        0.7467566492
 H        -0.5197496952       -4.0840756888        4.0945091004
 H         0.6168122947       -3.2343716848        2.8998354279
 H        -1.3051356222       -6.7894588922        0.9699288980
 H         0.3821569963       -6.7818249282        1.5174990595
 H        -0.0176038933       -6.8453179964       -0.3093100003
 H         0.8963345077       -3.3982228681       -0.1437079715
 H         1.3469499583       -3.6943193458        1.5528366076
 H         1.7605693700       -4.9085084546        0.3629348460
 H        -2.2648876461       -2.3024325663        2.9750705564
 H        -1.4348253543       -1.8924704158        4.2290045460
 H         1.6023709159        1.8004289801        2.0128674363
 H         0.1997736066        2.8726710179        2.1684488750
 H        -1.0995147565        1.0018314363        0.9486928028
 H        -1.6499328463        2.2396502095        2.1925538751
 H        -2.7317728967        1.0194063201        1.7781402817
 H        -1.8054459790        0.0780777959        5.3687920959
 H        -2.3335190465        1.3267887777        4.3210690707
 H        -2.8712901652       -0.3092180222        4.1982860234
 H         2.2271571598        4.0238762609        2.6365364685
 H         2.6254092177        2.8284360243        3.9664611262
 H        -0.6633232757        4.6220131083        7.2947273755
 H         0.9782921275        4.4607221164        7.8959297803
 H         2.8910953884        4.7991710460        6.9204236549
 H         3.7984495005        5.2174927207        5.5570229259
 H         2.7688277496        3.5407389702        5.7262829045
 H         3.0647548081        6.4082757340        3.8340068874
 H         1.5021837609        6.0143542831        3.1222586305
 H         1.5046536066        7.2397388900        4.4050164818
 H         0.8806822316        6.8392107769        8.8440173820
 H        -0.8796334813        6.6887348900        8.9007125324
 H        -2.1451762575        3.2573598569       13.4121062837
 H        -0.6489720831        2.3763796974       12.7851501739
 H        -0.4018304947        3.9057730705       13.8677069153
 H         0.9083668559        6.0398711029       13.4751342194
 H         1.9519764354        6.0424260951       12.1549135521
 H         1.3638724010        4.3532896476       12.7598814802
 H         0.4045534962        7.6763361936       11.6593248215
 H        -0.7620695214        7.5017530100       10.6261522417
 H        -1.2278950518        7.1959095736       12.3527507963
 Na       -1.4427381954       -2.7216863375       -3.6085345538
