155

 C         0.8184705495        5.1731143854       -4.2365311203
 C         1.9295197756        5.3089358743       -5.3883986022
 C         3.4294177799        4.6419398978       -5.3396561576
 C         3.1865820508        3.3341479822       -4.6574445881
 C         3.0486253713        2.0606917778       -5.4150986236
 C         3.9555133275        4.5440471185       -6.7583742157
 C         4.3150052834        5.5501801220       -4.5197509473
 O         1.6170300467        5.9787484213       -6.3433916682
 O         3.1361347725        3.2102373743       -3.4376844149
 C         2.6248670339        0.8769442176       -4.5859618195
 C         2.0943231887       -0.3567674139       -5.5495896537
 C         2.1698922312       -1.8541018540       -5.2726669562
 C         0.6199230872       -2.2622215306       -5.6956024291
 C         0.2245817442       -2.9991410634       -7.0272030082
 O         1.6254036041        0.0195929743       -6.6729274917
 O        -0.2803306053       -2.1193215461       -4.8791080977
 C         3.2095510726       -2.5342068113       -6.2968538062
 C         2.3912063423       -2.2650641098       -3.8639453213
 C        -1.2175536866       -3.2354341817       -7.2227412398
 C        -1.5495434174       -4.5375917139       -6.3866297345
 C        -2.6594353821       -5.4162907335       -7.0459058359
 C        -3.9722674153       -4.6043290903       -7.0082678604
 C        -5.2497616816       -5.1412751917       -6.2682745497
 C        -2.3713752589       -5.7537166502       -8.5353570027
 C        -2.7959163701       -6.7304456953       -6.1434238648
 O        -1.0981544152       -4.7803968768       -5.3025553985
 O        -4.0933445430       -3.5755209431       -7.6674722080
 C        -5.8521557805       -4.0706299750       -5.3468222510
 C        -4.8928331370       -3.6024333649       -4.2256898489
 C        -5.4635597559       -3.0694649770       -2.8473951515
 C        -4.3101221554       -2.4932993099       -1.9343527924
 C        -4.1900402782       -2.9193766106       -0.3459667381
 O        -3.7078583566       -3.7253225189       -4.3739598483
 O        -3.5530681910       -1.7262741027       -2.4928060306
 C        -6.3587910970       -1.8037719220       -3.1983442831
 C        -6.1753601370       -4.2444775720       -2.1204339034
 C        -2.7306403421       -2.5517694589        0.0937280590
 C        -1.6113542186       -3.6191206431       -0.3247161728
 C        -1.2499049693       -4.7143597899        0.7466871954
 C        -0.6687498895       -3.9799949929        2.2216573763
 C         0.4916478565       -3.0986701967        2.0986510371
 C        -2.5234175075       -5.5943591216        0.9734478515
 C        -0.0571116426       -5.5992672397        0.3333441059
 O        -1.0846912996       -3.5648798012       -1.4509255583
 O        -0.9979007457       -4.5069716232        3.2862158871
 C         0.7495044955       -1.8679759165        3.1552710299
 C        -0.4398256447       -0.9448121271        2.9951190656
 C        -1.1267675856       -0.1969071985        4.2933979154
 C        -0.1135551448        0.9384228119        4.8040299423
 C         0.3465794732        2.0749453477        3.7844011751
 O        -0.8735377310       -0.8190960788        1.8556152314
 O         0.1645071566        1.0732093408        6.0015593675
 C        -2.3892895883        0.5651943372        4.2027000940
 C        -1.2295449922       -1.3486322695        5.4410336266
 C         1.5162051508        2.9797902245        4.2398153464
 C         1.1267361355        4.4425418896        4.0858468811
 C         1.9659970796        5.4677420067        4.8896093083
 C         1.2738935960        5.9089066098        6.2488298185
 C         0.3863438197        4.7257195862        6.7841674806
 C         3.3655263181        4.9822446096        5.2025927878
 C         1.9950946429        6.7353902513        3.8442484888
 O         0.1465599604        4.6184447623        3.3639519814
 O         1.3633218946        6.9989015093        6.8186327565
 C         0.3684271663        4.4985751958        8.3238745237
 C         1.8436337776        4.3950891260        8.7844191715
 C         2.1035584320        4.3563907403       10.3701317002
 C         0.7496968465        4.6118025834       11.2143575510
 C         0.2975235583        5.9763713025       11.9285062395
 O         2.8055348912        4.4009082112        8.0242642514
 O         0.0875918421        3.6420486779       11.4813692517
 C         2.6569858261        2.9976482244       10.8091041987
 C         3.1970794126        5.3079224180       10.7336729468
 H         0.9686377193        4.1937677741       -3.5954980284
 H         0.7188056586        6.1934633551       -3.7527691819
 H        -0.1012194180        5.0138074249       -4.6999382668
 H         2.4101170101        2.2455454842       -6.2538626985
 H         3.9899802537        1.9413754536       -5.9042469062
 H         4.5901880383        3.6595713876       -6.8368604567
 H         4.7162781013        5.4057859590       -7.0701540950
 H         3.3232200588        4.5008896485       -7.6426114394
 H         4.0725130052        6.6697884279       -4.5802735321
 H         4.2193702650        5.2604440198       -3.4401746723
 H         5.2835421738        5.5371402228       -4.9770742180
 H         3.5395135787        0.4304337753       -4.0132447172
 H         1.8872401191        1.1984079500       -3.8630559210
 H         0.5665441631       -2.3691938090       -7.9145855696
 H         0.7013229945       -3.9648859599       -7.0824721605
 H         2.8987537486       -3.6354847320       -6.1398375742
 H         4.2316619147       -2.3784106264       -6.1834562775
 H         2.9224497299       -2.3337147360       -7.3556609684
 H         1.6358928872       -1.7690575890       -3.2073139760
 H         2.3856871526       -3.4199887187       -3.8011620843
 H         3.4408678868       -1.9413412129       -3.4589439858
 H        -1.3507445256       -3.5264062243       -8.3413978643
 H        -1.9370762379       -2.5213767395       -6.9749782311
 H        -5.9947401577       -5.1916587588       -7.1552969674
 H        -5.0827054699       -6.1294418937       -5.8940198764
 H        -1.2597678470       -5.8209584001       -8.7121056179
 H        -2.9284281260       -5.0587534937       -9.0735480588
 H        -2.8917911613       -6.6728617336       -8.7883491194
 H        -3.6718455830       -7.3307079545       -6.5094076150
 H        -1.7888733038       -7.1808179132       -6.0628315996
 H        -2.8887983231       -6.4337023516       -5.1385100807
 H        -6.1970982946       -3.2025308340       -5.9392739111
 H        -6.7150358710       -4.3700288885       -4.8705718617
 H        -4.9447398672       -2.2240252254        0.1524081706
 H        -4.3988285987       -3.9310231377       -0.0855542026
 H        -7.2520226753       -2.1815975421       -3.6362597063
 H        -5.9243027606       -1.1122155572       -3.9942916347
 H        -6.7097469425       -1.3754649397       -2.2368711118
 H        -5.8514473680       -5.2390376479       -2.5933739331
 H        -5.8058380486       -4.3955452746       -1.1430030946
 H        -7.2857615386       -4.0839203956       -2.2729005957
 H        -2.8641055605       -2.3734358966        1.1626190686
 H        -2.4263703864       -1.6852362352       -0.6140146729
 H         1.3645102778       -3.7406832160        2.2003317165
 H         0.7450160004       -2.7788815299        1.0902132379
 H        -3.2556377936       -5.0883218265        1.6016221814
 H        -2.2359073227       -6.4527449219        1.5688232416
 H        -3.0286472652       -5.9820273276        0.0403780280
 H         0.4167701201       -5.0498992212       -0.5571878637
 H         0.7424237233       -5.5420840411        1.0608354895
 H        -0.1097931408       -6.7009462312        0.1282957898
 H         0.9939311344       -2.3046159176        4.1588355711
 H         1.6085488491       -1.2943905509        2.6371430820
 H         0.6227538455        1.6069925700        2.8300970126
 H        -0.5195537637        2.7243264442        3.4365946904
 H        -2.2016911986        1.5279023902        3.5474764618
 H        -2.6723206637        1.0382988846        5.2158817399
 H        -3.1357070541       -0.0701835790        3.7243951508
 H        -0.3711398604       -1.9384047088        5.5274024436
 H        -1.6334656241       -0.8867874705        6.3442700816
 H        -1.8730879176       -2.1673643096        5.1989763093
 H         2.4776694149        2.7175174197        3.7380427626
 H         1.6714437664        2.7118507127        5.2932527547
 H        -0.6306368393        4.7305014214        6.3560192061
 H         0.7913774491        3.7485993992        6.5530889872
 H         3.8906705843        5.3261176219        4.2033918655
 H         3.3987933551        3.9024680578        5.3264474010
 H         3.7682380130        5.3749591820        6.1205053328
 H         1.1157045390        6.5647144323        3.1320883018
 H         1.7203627280        7.6466450201        4.3317143655
 H         3.0613113791        6.8879758431        3.4366058840
 H        -0.0170349375        5.3831448316        8.8123505965
 H        -0.2638369078        3.6838957539        8.6062568406
 H        -0.7097336624        6.1014272769       11.4714039343
 H         0.1372477650        5.6369491638       13.0103429437
 H         0.9462227082        6.8644206972       11.8576990743
 H         3.5949331312        3.2064633346       11.4256504105
 H         3.0511668988        2.4000088124       10.0963325984
 H         1.9364790975        2.4550987427       11.4340085580
 H         3.7151117899        5.6154177230        9.9090958281
 H         2.7798225418        6.3195487497       11.0080871990
 H         3.7597731937        4.8903986660       11.4914817080
 Na       -1.5664997048       -2.9619572164       -3.4443927949
