155

 C         0.9638714164        5.5249946138       -4.2008514226
 C         1.9452984306        5.7131691691       -5.3259736386
 C         3.2353047137        4.7419286020       -5.2681686465
 C         2.7022394448        3.3787199544       -4.7718211987
 C         2.8811568548        2.1708445450       -5.8265551907
 C         3.8554602416        4.9321242731       -6.6451450811
 C         4.1311700468        5.2018758517       -4.1562419825
 O         1.7488708267        6.4985179446       -6.2210874481
 O         2.4419736349        3.2249506295       -3.6282959894
 C         2.9617056934        0.7492245637       -5.2931676671
 C         1.9251839168       -0.1626338016       -5.8550688887
 C         2.0016138906       -1.7840017722       -5.4083749776
 C         0.5541990866       -2.3265296319       -5.8721092838
 C         0.4730214358       -3.0903467535       -7.2389564389
 O         0.9831331000        0.1333987123       -6.5280475466
 O        -0.3368195121       -2.0785064346       -5.0801748711
 C         3.2469765333       -2.3605559745       -6.0302129504
 C         2.1658360039       -1.9170933083       -3.8011156558
 C        -0.8598900154       -3.8383025911       -7.4553225552
 C        -1.2569935313       -4.7293657371       -6.3347783509
 C        -2.7568897225       -5.3965115740       -6.5981804636
 C        -3.9852053937       -4.3377844054       -6.4178400255
 C        -5.3844409007       -4.8711129774       -6.0629870885
 C        -2.8846973880       -5.7640773138       -8.0850845222
 C        -2.8363718698       -6.6833684194       -5.7550182535
 O        -0.5965563633       -4.9357213623       -5.3381834391
 O        -3.6852182331       -3.1954238969       -6.6930274455
 C        -6.0454666793       -4.2882260483       -4.8140823395
 C        -4.9794516436       -3.8144234038       -3.8206085677
 C        -5.6826930725       -3.0442642633       -2.6261767784
 C        -4.4999928111       -2.4677400730       -1.8741273530
 C        -4.3539156983       -2.2072889478       -0.3543136768
 O        -3.8410789800       -4.3353346612       -3.8490901647
 O        -3.5107255017       -2.1228980569       -2.4573299856
 C        -6.5056316878       -1.6430441949       -2.9971466564
 C        -6.7185258426       -3.9272147810       -1.9289840040
 C        -2.8811892566       -2.4605334748        0.0498839329
 C        -2.1217691819       -3.7758718235       -0.3594672590
 C        -1.6053358962       -4.5956408561        0.8883432736
 C        -0.6152987074       -3.8023760845        1.8273593544
 C         0.0834712808       -2.6085645016        1.3288544641
 C        -2.8847669115       -5.0967766595        1.6588541387
 C        -0.6363896156       -5.7594364672        0.3720814855
 O        -1.9639149043       -4.0341732021       -1.5532585621
 O        -0.3634811245       -4.2604319511        2.8840052783
 C         0.2355181101       -1.6510700073        2.4414221590
 C        -0.8544508397       -0.7645856834        3.0220827008
 C        -0.8766014279       -0.2904415351        4.5533095031
 C         0.2796746821        0.8832269441        4.7876657072
 C         0.6427207442        1.7423747967        3.6325363674
 O        -1.7469372914       -0.2556711318        2.3148733036
 O         0.3860492942        1.3181702604        5.9695681204
 C        -2.2757307073        0.2866384480        4.7053616638
 C        -0.4560274811       -1.3421077941        5.6371503162
 C         1.5687044746        2.8649259142        3.8684511191
 C         0.8723637536        4.1875641791        3.9621477223
 C         1.7479432919        5.3026169701        4.6286271588
 C         1.4342574104        5.5645963295        6.1365466944
 C         0.4712937749        4.6310577251        6.8880284126
 C         3.2595903357        5.0104545399        4.7706676204
 C         1.5696028066        6.6122009312        3.6456729703
 O        -0.1943010749        4.4333663213        3.4169364096
 O         1.7376817411        6.6467515384        6.6094786675
 C         0.8689065687        4.2955111112        8.3761153863
 C         2.3787366670        4.1073699173        8.7020186302
 C         2.8071814843        4.1531479724       10.2024028646
 C         1.7446504560        4.7452093442       11.1127362270
 C         1.5814408402        6.2734008755       11.3055147227
 O         3.2855677572        3.7627505759        7.9481443721
 O         0.9702379228        3.9872871204       11.7165819426
 C         2.7376714198        2.5536237911       10.4969887632
 C         4.2508333192        4.6678389344       10.2790988380
 H         0.7574186027        6.4898428695       -3.7580512556
 H         0.1062625905        4.8038746621       -4.5653835472
 H         1.3620660822        4.9558349123       -3.4479463770
 H         1.9075126505        2.1394686426       -6.4606138547
 H         3.7020045965        2.4102170050       -6.5296056063
 H         4.3602333751        4.0875697496       -7.2041164159
 H         4.5992384429        5.7806724841       -6.5801530790
 H         3.1386725637        5.2756349688       -7.3572707605
 H         4.3231734010        6.3055531076       -4.1479239708
 H         3.8344259931        4.8303814889       -3.0895052611
 H         5.1170522215        4.7092718507       -4.3698655890
 H         3.8668975089        0.2284103489       -5.3468487488
 H         2.5455369779        0.7801940095       -4.2383338571
 H         0.6180977489       -2.3702444059       -8.0154536642
 H         1.2679632939       -3.9182011169       -7.3473739898
 H         3.2818260658       -3.4117472131       -5.8584746419
 H         4.0700294966       -1.9923731099       -5.3680958100
 H         3.4713249459       -2.1778644616       -7.1396086756
 H         1.7062038331       -0.9296381789       -3.4370728913
 H         1.6172293107       -2.7992763729       -3.4396178250
 H         3.1837666296       -1.7207111146       -3.4091103478
 H        -0.6424414665       -4.1601179293       -8.4479310999
 H        -1.7610513983       -3.1380362892       -7.4021467994
 H        -5.9928144421       -4.8204660678       -6.9481311430
 H        -5.3519971626       -5.9632114531       -5.9037797669
 H        -1.8610504068       -6.1020880461       -8.4757060794
 H        -3.1070777373       -4.7794389073       -8.5870553509
 H        -3.6652434888       -6.5160012278       -8.3035485496
 H        -3.1114293215       -7.5522475447       -6.2570737242
 H        -1.8764964620       -7.0235527739       -5.4163866161
 H        -3.4595790881       -6.3781093952       -4.9493274622
 H        -6.6236398635       -3.3727395411       -4.9494421490
 H        -6.7108448566       -5.0689712974       -4.3812960943
 H        -4.7055025613       -1.1809269002       -0.3523978962
 H        -5.0127338781       -2.8930466664        0.2268517612
 H        -7.4358526787       -1.9884063768       -3.2831304140
 H        -6.0355922194       -1.0522716074       -3.8009995421
 H        -6.5532053844       -1.0263037268       -2.0816091811
 H        -6.1813868193       -4.8603911188       -1.5895890678
 H        -7.0948584483       -3.2624200402       -1.0984267917
 H        -7.6583864814       -4.1857295057       -2.5038985012
 H        -2.8278316456       -2.4640074085        1.0696908699
 H        -2.3302703565       -1.5179869672       -0.2244839020
 H         1.1148973674       -2.8545766370        1.0433518127
 H        -0.3143130366       -2.1188887723        0.4618281818
 H        -3.7945492122       -4.5639083855        1.4578829120
 H        -2.6687343993       -5.0468511517        2.6906716586
 H        -3.1623389853       -6.1031206272        1.4954144256
 H        -0.9424215385       -6.7719125309        0.6358052047
 H        -0.4738497380       -5.6356101493       -0.7663282426
 H         0.3425116049       -5.6426774952        0.9110972444
 H         0.7337464449       -2.1275878557        3.3291978269
 H         1.0119569889       -0.9705999329        1.9812047471
 H         1.0899870472        1.1271856462        2.9130839113
 H        -0.2405846655        2.1985331104        3.3534643767
 H        -2.4617796965        1.0697782736        3.8646116354
 H        -2.4178875090        0.7859317349        5.7164179565
 H        -3.0499385518       -0.4923566953        4.6010706930
 H         0.5599455761       -1.6457986211        5.6504170609
 H        -0.3857995180       -0.8414822297        6.6174230801
 H        -1.1526576825       -2.1321152926        5.6790502124
 H         2.2971633516        2.9543898937        3.0778934449
 H         2.2274141361        2.7110032315        4.7359977496
 H        -0.5046490066        5.1404150946        7.0484286541
 H         0.3741341889        3.6889381689        6.3580782887
 H         3.5630392691        4.6415694966        3.7106983969
 H         3.4908580463        4.3064393420        5.5887103257
 H         3.6479124100        5.8779263935        5.0954468094
 H         2.3923998304        7.3522759818        3.8195530558
 H         1.8513190482        6.1108377653        2.6773575946
 H         0.5759905171        7.1766045179        3.6352134034
 H         0.4476978871        5.1550094375        8.9018048423
 H         0.3750083736        3.4255190249        8.7034057215
 H         0.5721412903        6.3030568295       11.6459368956
 H         2.3070356990        6.6419752151       11.9814563137
 H         1.6507420591        6.8677477537       10.3855758130
 H         3.0352267519        2.3172828788       11.5099386378
 H         3.3353116401        1.8829169263        9.9875508010
 H         1.6398296106        2.3156040754       10.4621130150
 H         4.8295446785        4.3801611975        9.3992960426
 H         4.3731565326        5.6645390652       10.6514313046
 H         4.6326073989        3.9998321266       11.1347022278
 Na       -1.8794187000       -3.1303226948       -3.8813084925
