155

 C         1.2411446852        6.3381515568       -3.6767638265
 C         1.8711900311        5.8957681548       -5.0380915659
 C         3.0910047799        4.7694257334       -5.1682825997
 C         2.3988449765        3.3363029313       -5.1631811495
 C         2.2222514239        2.4913888640       -6.4955047649
 C         3.9320316511        5.1081494314       -6.4014273099
 C         3.9495238662        4.8309920187       -3.8245929046
 O         1.3054020073        6.0123514044       -6.1147716311
 O         1.9012966719        3.0069678947       -4.0289172243
 C         2.6681891445        1.0583686585       -6.0762443889
 C         1.6253721485       -0.0583057604       -6.2316322012
 C         1.7710073922       -1.1653066563       -5.1362602185
 C         0.5807600276       -2.1690514247       -5.3884505613
 C         0.4699145818       -3.0602516272       -6.5582922111
 O         0.6626546364        0.0841464451       -6.9188176981
 O        -0.4236809612       -1.9532827288       -4.7479824796
 C         3.0730033878       -1.9206751228       -5.2914116330
 C         1.5137679361       -0.4684791742       -3.6643145636
 C        -1.0781523937       -3.4058200533       -6.8085262620
 C        -1.4420329478       -4.6800349035       -5.9506465669
 C        -2.8532273974       -5.5540805568       -6.2241765439
 C        -4.0871671222       -4.6000341189       -5.7190184707
 C        -5.4915921365       -4.8922005218       -6.1807720644
 C        -3.0961953791       -5.9796270064       -7.6776291473
 C        -2.9892462781       -6.8399086021       -5.3475176260
 O        -0.7239818780       -5.1573588704       -5.0706772966
 O        -3.7788302571       -3.5972318134       -5.1078464997
 C        -6.3029259985       -3.8990492799       -5.3227983189
 C        -6.1931277919       -4.0318862820       -3.7882429066
 C        -6.3690441149       -2.6002836302       -2.8997462654
 C        -4.9760201022       -2.6108952371       -2.3316444904
 C        -4.5888974771       -3.4310122996       -1.1528079019
 O        -6.1778723372       -5.0900429406       -3.1729359184
 O        -4.0315942219       -2.1193044489       -3.0070375062
 C        -6.8978792496       -1.3838259044       -3.6752679235
 C        -7.3507143088       -2.9856327667       -1.8409209807
 C        -3.4440871009       -2.7004976743       -0.4858194736
 C        -2.1604335334       -3.5761345992       -0.1779946577
 C        -1.9624654828       -4.5412834286        1.0757305932
 C        -0.9057885794       -3.9031245578        2.0140416223
 C         0.3488070713       -3.0255416516        1.4538476176
 C        -3.3207224669       -4.7325947709        1.8132550254
 C        -1.4388409631       -5.8783041551        0.6738358322
 O        -1.4156586009       -3.6819716332       -1.1406698365
 O        -1.0064260431       -4.2287953370        3.1555318126
 C         0.7084022733       -1.9251895690        2.5029735064
 C        -0.5080056233       -1.1184594663        3.0661610025
 C        -0.2314105077       -0.3071548917        4.3071148768
 C         0.9278388704        0.7396457599        3.8558572334
 C         0.4370239535        1.9311810691        2.9041536130
 O        -1.5975889543       -1.2220076392        2.4353207466
 O         2.0217835797        0.7112822009        4.4445849441
 C        -1.4220957784        0.4571755331        4.8147499848
 C         0.4105286914       -1.0469397765        5.4538490102
 C         1.1561723396        3.2483469894        3.1118358518
 C         0.5532317442        4.2807741347        4.0591562150
 C         1.5835493622        5.4650377420        4.6121348427
 C         1.5118758098        5.5381055961        6.1950244446
 C         1.3360321515        4.1101177843        6.8428766076
 C         3.0379472256        5.2273152896        4.3488319167
 C         1.0690192042        6.8041683945        4.0550490501
 O        -0.5970647336        4.2687009595        4.4808950853
 O         1.5669501217        6.6695470266        6.7017885607
 C         1.7518693343        3.8659554828        8.3730741647
 C         3.2236874244        3.9092791941        8.6110435687
 C         3.7981510885        3.4558211888        9.9909037169
 C         3.4757752072        4.9905554993       10.6761854977
 C         4.6367808596        5.9874386010       10.4727946255
 O         4.0053864898        4.2637609468        7.7351929785
 O         2.3221720654        5.1345091261       11.0866059037
 C         2.9283762187        2.4583550630       10.8015310858
 C         5.2075934673        2.9015689693        9.8710465887
 H         1.9369798544        6.7414466910       -2.9993392709
 H         0.5461872813        7.2017209532       -3.9025323398
 H         0.9470188132        5.5031990375       -3.1989104870
 H         1.1776977904        2.7072965888       -6.5898941773
 H         2.9845361677        2.7836065316       -7.3247550692
 H         3.4844186407        6.0301554232       -6.9108495809
 H         3.9118299226        4.3149040707       -7.1221598884
 H         4.9081846538        5.1925353931       -6.1097433289
 H         4.3618784610        5.8120151779       -3.6293983439
 H         3.3642589978        4.6948610167       -2.8672479191
 H         4.9182829493        4.2603424059       -3.9099954992
 H         3.3727624140        0.7153315346       -6.8810640941
 H         3.3103236952        0.9703602871       -5.1992928499
 H         0.9808800976       -2.4593896866       -7.3931681318
 H         1.2172179278       -3.8247453577       -6.4040978331
 H         2.9920676457       -2.8614418041       -4.7743957165
 H         3.9199144848       -1.3215888035       -4.7499496360
 H         3.3813823759       -2.1629620788       -6.3470578774
 H         1.8894939251        0.6232699085       -3.7527180498
 H         0.4809298933       -0.5164425502       -3.4223967559
 H         1.9003446681       -1.1820583224       -2.9659067626
 H        -1.0602675388       -3.5608958759       -7.9198417622
 H        -1.6256461513       -2.4096553559       -6.6982101847
 H        -5.7021538841       -4.8213729221       -7.2123321299
 H        -5.6890789855       -5.9379302485       -5.8382610038
 H        -2.3731832562       -6.7379756640       -7.9656214289
 H        -3.1313658361       -5.1035421306       -8.4087940665
 H        -4.0834834740       -6.4697994232       -7.8909182381
 H        -3.9131373422       -7.3098001809       -5.5714939531
 H        -2.1318912772       -7.4434471615       -5.3052289708
 H        -3.0695301844       -6.5527392009       -4.2733687874
 H        -5.9250016394       -2.9882080201       -5.7697953678
 H        -7.4208136424       -3.9702517682       -5.6618349243
 H        -5.4834081403       -3.6522040222       -0.5975454653
 H        -4.2725560758       -4.3902883206       -1.5837652668
 H        -7.8954532998       -1.5770478512       -4.0854774670
 H        -6.2158747668       -1.0723012631       -4.4768331404
 H        -7.0320345567       -0.6349338960       -2.8901029348
 H        -7.3249000769       -4.1040149235       -1.6348255274
 H        -7.1164846294       -2.5732941916       -0.8172193444
 H        -8.3752454902       -2.8446049059       -2.2557233878
 H        -3.7167157434       -2.1096164715        0.3604466641
 H        -3.0660728891       -1.7490314095       -1.0749487295
 H         1.2953315810       -3.5124995027        1.2885743886
 H        -0.1075179523       -2.5404454783        0.5720778838
 H        -3.7032280691       -3.7509511800        2.0845439985
 H        -3.2925017238       -5.3349561140        2.7462888626
 H        -4.0295266552       -5.1540378666        1.1356612540
 H        -1.5275750875       -6.4422344229        1.5818918586
 H        -2.0988123419       -6.3314395131       -0.1606461105
 H        -0.4425941125       -5.8365163846        0.2126585324
 H         1.1701969112       -2.3588409794        3.4010034550
 H         1.5434815231       -1.3882322922        2.0932570897
 H         0.6773058042        1.5851419402        1.9379623765
 H        -0.5556259284        2.2444753900        3.0365201785
 H        -1.8959541444        1.2100871625        4.0509730989
 H        -1.0147084467        1.1660966351        5.6217261991
 H        -2.2052894672       -0.1780862360        5.1795412000
 H         1.2523343613       -1.5401030050        5.0602326413
 H         0.5278566322       -0.2846680971        6.2293317673
 H        -0.1646921500       -1.9148233019        5.7867269663
 H         1.1205580161        3.7793740938        2.1290261997
 H         2.1672938811        3.1415344008        3.4289668523
 H         0.2978172961        3.8126202631        6.6666007988
 H         1.8169067699        3.3058015278        6.2744879946
 H         3.3360642444        4.8007806126        3.3102796076
 H         3.3974513278        4.5024692393        5.1380447192
 H         3.5549503355        6.1308857968        4.4698086182
 H         1.7206386311        7.7089797693        4.1355193488
 H         0.8690205278        6.7746129679        2.9154925561
 H         0.1590387844        7.1540086725        4.5339824267
 H         1.2940437343        4.4533678887        9.1563410222
 H         1.4218472884        2.8405806729        8.7005643337
 H         5.6257587331        5.5619543693       10.5526694347
 H         4.6572623726        6.3823124698        9.4852838631
 H         4.4145564249        6.8712202654       11.1078191629
 H         3.3566807296        2.1956417428       11.7929716748
 H         2.8445464253        1.5109455962       10.2960743800
 H         1.8118304674        2.5868391772       10.9906922851
 H         5.2950037652        2.0529110380       10.5372428153
 H         5.5610583743        2.6771519945        8.8959509668
 H         6.0662201842        3.6241962905       10.1221390367
 Na       -2.1732611876       -2.8274502820       -3.5525316610
