155

 C         1.2402447113        6.1779723998       -3.8205981300
 C         1.6234097918        5.5079538834       -5.1954073974
 C         2.9405685199        4.6747241080       -5.1035213134
 C         2.3091023478        3.2350066647       -5.1728417590
 C         1.8071195331        2.5628483928       -6.5999385589
 C         3.8678919135        5.1065506670       -6.4056719825
 C         3.8385457897        4.6257578555       -3.8410194511
 O         1.1054549129        5.7025528827       -6.3170311857
 O         1.9884350273        2.7983122433       -4.0698314361
 C         2.1854183144        1.1314807660       -6.7217164961
 C         1.1329757958        0.0678295833       -6.3419337077
 C         1.5470313117       -0.8992268625       -5.1179120036
 C         0.5108298627       -1.9418703957       -4.9145958338
 C         0.3246656128       -2.8965872625       -6.0787619602
 O         0.1171520453        0.0081073058       -6.9363712010
 O        -0.3146314934       -1.7359352737       -4.0616387245
 C         3.0077300617       -1.5066224964       -5.3049698028
 C         1.5039286184       -0.0461859270       -3.7900098305
 C        -1.0956065041       -3.2507211353       -6.2009063958
 C        -1.4633627519       -4.5094664521       -5.3259475031
 C        -2.7709902748       -5.3156673711       -5.7329040722
 C        -3.9190920218       -4.4491825589       -5.2512096917
 C        -5.3278083074       -4.8672222716       -5.7496783610
 C        -2.7552720927       -5.4461140281       -7.2693719201
 C        -2.6817487704       -6.6070175066       -5.0241374232
 O        -0.9662569131       -4.8033340588       -4.2773079679
 O        -3.7110103631       -3.5605677834       -4.3979157586
 C        -6.4864597022       -3.8754529231       -5.4780306325
 C        -6.8136442876       -3.8723884754       -3.9115448460
 C        -6.9338858903       -2.5178324989       -3.0121455566
 C        -5.3528899827       -2.3079657367       -2.3541024841
 C        -4.6993276240       -3.6180021932       -1.7288514056
 O        -6.7451803071       -4.9808062980       -3.3196570286
 O        -4.7929633157       -1.2381118253       -2.4831505522
 C        -7.0559474793       -1.2669921012       -4.0578485756
 C        -7.9686459065       -2.6643551073       -1.9171564323
 C        -3.7869744276       -2.9892671971       -0.6564091736
 C        -2.5372901143       -4.1457997572       -0.3587616309
 C        -2.2459509640       -5.0195715587        0.9439253582
 C        -1.1865083177       -4.1618842175        2.1365852840
 C        -0.1478995092       -3.2079909303        1.6325218568
 C        -3.6332051882       -5.4866781897        1.5957894283
 C        -1.4188503328       -6.3331522857        0.5085641334
 O        -1.7772834789       -4.2864161978       -1.2819398405
 O        -1.3798612630       -4.6100893899        3.2084327615
 C         0.5779877037       -2.2776586852        2.7162271964
 C        -0.2782519094       -0.9873445384        2.8953226570
 C         0.1214116387       -0.0762541912        4.0086522238
 C         1.0676848483        1.1013299002        3.1106484383
 C         0.3643304719        2.3389285967        2.4138950893
 O        -1.1763813067       -0.6763303272        2.1277905345
 O         2.2281318112        0.7383133838        2.8341991297
 C        -0.8764982257        0.7501399303        4.7706403867
 C         0.9883027323       -0.7965525979        5.0403624250
 C         1.1133984982        3.5968203001        2.7219680390
 C         0.5589003649        4.2477980667        4.0997467547
 C         1.3845605131        5.4416224928        4.7591257749
 C         1.4030889094        5.3075304302        6.3530146905
 C         1.7244827244        3.8526885830        6.7907637309
 C         2.8700804825        5.2953212710        4.2909131371
 C         0.9248791426        6.8116645761        4.2243319431
 O        -0.5158508394        3.8810742406        4.5290417698
 O         1.2161631141        6.2458183035        7.1382155640
 C         2.0594555073        3.7108049394        8.3424390737
 C         3.5833274765        3.5595709169        8.4959966111
 C         4.2448555182        3.4895507593        9.9192949697
 C         4.8273780367        5.0860554931       10.3464186758
 C         5.9009912406        5.9401373252        9.7812940349
 O         4.3706639162        3.6289874256        7.5569228820
 O         4.4343430591        5.3769627490       11.4751487804
 C         3.2948168265        3.1341301617       10.9736450960
 C         5.4599121384        2.5303162274        9.9210794423
 H         1.8019838022        6.9886044708       -3.5210627250
 H         0.1350442854        6.5506140316       -3.7178638118
 H         1.3705736151        5.3812606787       -3.1174730194
 H         0.7968315716        2.7533806492       -6.6651240808
 H         2.1909392973        3.1359727908       -7.4899295859
 H         3.1252722611        5.5414526741       -7.1138952389
 H         4.4892839754        4.3846472192       -6.7548825460
 H         4.3915975418        5.9907397662       -6.0348467328
 H         4.0802510901        5.6145113988       -3.4503861230
 H         3.4286482344        4.0967234327       -3.0137093247
 H         4.7351113747        3.9796072859       -3.8599060008
 H         2.5309674556        0.9525105788       -7.7722661550
 H         3.1587499864        1.0009669010       -6.2020673646
 H         0.8206539037       -2.3400834622       -6.8492222127
 H         0.8698816646       -3.8645573217       -6.0126601914
 H         2.8381122624       -2.6236454226       -5.2193514791
 H         3.7862474157       -1.2777232232       -4.5096901514
 H         3.4175222935       -1.3936482373       -6.2754524200
 H         2.4382474803        0.5912038666       -3.7627988420
 H         0.5620555843        0.3749279378       -3.8369822078
 H         1.7335194778       -0.7156550501       -3.0232728681
 H        -1.3760300804       -3.5216471896       -7.2739972370
 H        -1.6379046852       -2.3728859518       -5.9272133795
 H        -5.1385297128       -4.9364657675       -6.8658209109
 H        -5.8135414218       -5.6866451977       -5.3216755012
 H        -1.8330583695       -5.6702333979       -7.7388312069
 H        -3.3293158534       -4.5577181680       -7.7289206686
 H        -3.4525169173       -6.3423969460       -7.5169614847
 H        -3.3431278358       -7.3394036177       -5.4489726070
 H        -1.8005943027       -7.1092303788       -5.2355639294
 H        -2.8216965744       -6.4921667089       -3.9631998623
 H        -6.3929239940       -2.9581232925       -6.0740459097
 H        -7.2958080593       -4.3397711167       -5.9953153512
 H        -5.5623785605       -4.0642514398       -1.1714664474
 H        -4.2347887041       -4.1915354754       -2.5336732540
 H        -7.9189349892       -1.4263129677       -4.7675204746
 H        -6.1364368671       -1.1352308973       -4.5112406063
 H        -7.2023548993       -0.3287056425       -3.6007095673
 H        -7.9993444324       -3.7440493132       -1.7951274347
 H        -7.7424414409       -2.0437348325       -0.9644222792
 H        -9.0298237768       -2.3468657473       -2.0939599038
 H        -4.2578397632       -2.7169504612        0.3435973381
 H        -3.2583153279       -2.2165635460       -0.9929497076
 H         0.5655332010       -3.9813479572        1.1779093490
 H        -0.4569413162       -2.6514547329        0.7467231340
 H        -4.4008551678       -4.7695286804        1.6002090115
 H        -3.2343059812       -5.7550033310        2.5656445798
 H        -3.9876689348       -6.3280107603        1.1252929677
 H        -1.7545136400       -7.0848381213        1.2936643022
 H        -1.7531155979       -6.6519686800       -0.4708616369
 H        -0.3262499397       -6.2888331174        0.6557127600
 H         0.5138386819       -2.7582780483        3.6446700196
 H         1.5665839733       -2.0107877883        2.4657859588
 H         0.3834015134        2.1197929803        1.2270705176
 H        -0.7581691945        2.5102173923        2.5644093433
 H        -1.7258833844        0.8376522056        4.0782137204
 H        -0.6519763841        1.7457830389        5.0047666567
 H        -1.2087515611        0.3055522304        5.6453537233
 H         1.9358428997       -1.2320995181        4.6738042552
 H         1.4503943312       -0.1141091522        5.6953297304
 H         0.2479392277       -1.5911811206        5.4192149570
 H         1.0857398513        4.3292976489        1.9694863603
 H         2.1412171093        3.2381393248        2.7910078743
 H         0.9671883424        3.1474432016        6.4206880173
 H         2.5930997993        3.5332647284        6.2139679254
 H         3.0144908989        5.0559791540        3.2835599878
 H         3.6079814822        4.6870901960        4.9630477010
 H         3.3514523225        6.1979878008        4.5341324706
 H         0.1927465447        7.3840916020        4.7750315952
 H         1.6991640916        7.4980244360        3.8397487435
 H         0.2976548841        6.7039433619        3.4399959808
 H         1.7055867870        4.6804439324        8.9117746180
 H         1.5551760662        2.8536342536        8.8450519192
 H         5.3260802126        6.7085781773        9.3632831040
 H         6.3753216900        6.3752664915       10.6311603894
 H         6.6086251382        5.5341440911        9.0297320398
 H         3.8268145295        2.9488842294       11.8806165500
 H         2.8418042603        2.0688534300       11.0517533870
 H         2.5412278805        3.8378077284       11.2079840545
 H         5.9404995677        2.5186784052        8.8874752061
 H         6.3088559188        2.8966850145       10.4833755320
 H         5.2235388989        1.5460669673       10.4054486901
 Na       -2.0694384094       -3.1739220853       -2.9958377923
