155

 C         1.0078251567        6.2572878619       -3.9028812050
 C         1.6459872640        5.7095811296       -5.1454269526
 C         3.0413256564        4.7652478160       -5.2144111019
 C         2.2239772806        3.3367612322       -5.2431731021
 C         1.9182026724        2.8215278620       -6.6414194570
 C         3.8844605086        5.0450980688       -6.4628743434
 C         3.8905569400        5.0086356038       -3.9625562770
 O         1.1095671123        5.6827683359       -6.2148431630
 O         1.7977946998        2.8416975335       -4.2407431479
 C         2.1604581064        1.2620071351       -6.8627819488
 C         1.2085513943        0.3597249487       -6.1031083933
 C         1.5626171188       -0.6948770535       -4.9643033834
 C         0.4878665425       -1.8236587854       -4.8239997783
 C         0.2884765335       -3.0445135808       -5.9622436540
 O         0.1738400273       -0.0479143479       -6.6755893643
 O        -0.1230718354       -1.9480719188       -3.7679271134
 C         2.9658726882       -1.2678673780       -5.4335192236
 C         1.8329787347        0.0447246162       -3.6500017361
 C        -1.1815166862       -3.4276589051       -6.2183408397
 C        -1.5089886342       -4.6378436483       -5.3284702760
 C        -2.8684941383       -5.4592581703       -5.6618671458
 C        -4.0928846023       -4.6433510259       -5.2482644727
 C        -5.4461306607       -4.8906664352       -5.8470735983
 C        -3.0820530545       -5.7244405087       -7.1894237469
 C        -2.7620017295       -6.8744164635       -5.0063468702
 O        -0.8524476065       -4.9456913921       -4.3489257490
 O        -3.9705452583       -3.7537720121       -4.4421025193
 C        -6.3584461814       -3.6667162438       -5.3472694421
 C        -6.6104257017       -3.8271280791       -3.7844363833
 C        -6.8360157400       -2.4600939791       -2.9592340105
 C        -5.4790304804       -2.3439499084       -2.1268610061
 C        -4.9135845803       -3.6560983481       -1.2745828135
 O        -6.7740042178       -4.8857257472       -3.2841448525
 O        -4.6986337232       -1.4326511914       -2.3920579103
 C        -7.0478459471       -1.1625901157       -3.8157162502
 C        -8.1359964628       -2.6250049815       -2.0526088666
 C        -3.7841191230       -3.2246195496       -0.3553152660
 C        -2.6493560341       -4.2227905321       -0.3238285047
 C        -2.3750422928       -5.2220883565        0.9716775336
 C        -1.6204807676       -4.3146686248        2.0932009276
 C        -0.5978649449       -3.2559526522        1.4853807163
 C        -3.7502455817       -5.5691921318        1.5670872938
 C        -1.3745243042       -6.3220475017        0.6100335466
 O        -1.8838199635       -4.4608864470       -1.2759543205
 O        -1.7769245975       -4.6549824676        3.2503564567
 C         0.2087102584       -2.4965404688        2.4549198545
 C        -0.3906586637       -1.0564871807        2.7162393349
 C         0.3526109293       -0.0391674414        3.6233173521
 C         1.1633392200        1.1008508026        2.8302604961
 C         0.3834374380        2.3164822545        2.2502715948
 O        -1.3683454714       -0.6439676473        2.1558663838
 O         2.3186733118        0.9761762106        2.6605055205
 C        -0.8079208790        0.6447302665        4.3483378054
 C         1.4639976385       -0.4437441820        4.7044841568
 C         1.1179222040        3.6633398462        2.7521130259
 C         0.5946434698        4.1719356236        4.1292157079
 C         1.4958152404        5.2993778526        4.7726788426
 C         1.4315160431        5.1969955257        6.3234878575
 C         1.7422152240        3.8001759067        6.9697038780
 C         2.9629132579        5.3722015196        4.3562637843
 C         0.7158711337        6.5676247005        4.5030643863
 O        -0.4436245466        3.8489084898        4.6550976009
 O         1.2039860136        6.1331829485        7.0058527168
 C         2.2853308080        3.8960930121        8.3544354647
 C         3.8891964448        3.7423460261        8.5557263279
 C         4.4906570096        3.5480808195        9.9338848732
 C         5.2003278310        4.9171046535       10.4284036161
 C         5.8935466359        5.5175826361        9.2201160095
 O         4.6152356449        3.5852176847        7.5874258486
 O         5.0504990729        5.5391553875       11.4273532474
 C         3.4756297623        3.2481988873       11.0660086469
 C         5.5530509049        2.4609813414        9.8548383783
 H         1.7590260420        6.9541688978       -3.3829727390
 H         0.1558358308        6.8732660691       -4.1435864280
 H         0.6208000640        5.4972851135       -3.1401454402
 H         0.9429720840        3.4034078631       -6.9602737579
 H         2.5396529488        3.2762259397       -7.3788192657
 H         3.2572989343        5.0781061741       -7.3027955369
 H         4.5882162634        4.1153758292       -6.4074176946
 H         4.4712360102        5.9642119983       -6.3372974912
 H         4.0917010672        6.0554980783       -3.7686832859
 H         3.5692060142        4.4881629444       -3.0871530651
 H         4.8286292298        4.5662902388       -3.9368788837
 H         2.0835830622        1.1165436281       -7.9157756548
 H         3.2661173317        1.0878643604       -6.6883929546
 H         0.7685359673       -2.6010785524       -6.8479459654
 H         0.8574519918       -3.9341106049       -5.6493323340
 H         2.9288299578       -2.3404844720       -5.4213731474
 H         3.7224308724       -0.9843970059       -4.8136512824
 H         3.2816071033       -0.9913827583       -6.4549306904
 H         2.7208963095        0.5633837090       -3.6110261794
 H         0.8917056851        0.6880300499       -3.5017131787
 H         2.1341155733       -0.8475337791       -3.0295311699
 H        -1.3607544623       -3.7676705224       -7.1989130073
 H        -1.7610309563       -2.4790595755       -6.1290728144
 H        -5.5083693144       -5.0520916421       -6.8931037040
 H        -5.7898555188       -5.7587828865       -5.1805360181
 H        -2.0608330366       -5.9378751429       -7.6215822160
 H        -3.4206841900       -4.9403490193       -7.7725184118
 H        -3.6569066793       -6.5884405338       -7.3372662833
 H        -3.6569621623       -7.5016933712       -5.0835503548
 H        -2.0672777658       -7.6121121097       -5.5111963285
 H        -2.5605237803       -6.7327686811       -3.9521393447
 H        -5.7167274985       -2.8379272453       -5.6369004486
 H        -7.2527506215       -3.4742086267       -5.9322397790
 H        -5.6684361516       -3.9681677802       -0.5865171137
 H        -4.5508331030       -4.3007265200       -2.0932023637
 H        -7.8947256330       -1.2641239471       -4.4043600031
 H        -6.1253620081       -0.9544351525       -4.4437162638
 H        -7.2422682663       -0.2851605788       -3.1605677025
 H        -8.3737594525       -3.6330652109       -1.8112590797
 H        -8.0943205815       -2.0129113411       -1.2570522395
 H        -8.9818633545       -2.2036567436       -2.5025285242
 H        -4.0124640493       -3.1955456917        0.6892941410
 H        -3.2880283175       -2.2089589838       -0.7491292308
 H         0.0002834605       -3.7173660018        0.7302033173
 H        -1.2305858059       -2.5604424783        0.8575721734
 H        -4.2867773276       -4.6391510818        1.8789447802
 H        -3.6241439176       -6.2841918192        2.3681450043
 H        -4.3024735882       -5.9803331182        0.6549427306
 H        -1.6809675934       -7.2123894748        1.0758936851
 H        -1.3556889041       -6.4619948054       -0.4603378414
 H        -0.4264396140       -6.1078845544        1.0536286168
 H         0.1874191723       -3.1152251182        3.4296904286
 H         1.2457184681       -2.3021447662        2.0255795461
 H         0.2290667362        2.2340057585        1.2644320726
 H        -0.6079048778        2.4687847799        2.5668133725
 H        -1.5785681895        0.8938989089        3.6787972714
 H        -0.4355174269        1.4943230545        4.9118317846
 H        -1.3437662170        0.0478050110        5.1667007193
 H         2.4058284981       -0.6734390638        4.2028169530
 H         1.9002973501        0.5176873375        5.1506057756
 H         1.0791047514       -1.1340437873        5.4532195443
 H         1.0206108586        4.4789268950        1.9639675332
 H         2.1896115141        3.4969238282        2.8841926111
 H         0.7458281415        3.3096291083        7.0211917536
 H         2.3144294707        3.0304606400        6.4077233021
 H         3.0127617087        6.1068644305        3.5218026299
 H         3.2879264374        4.4716876472        3.9711621234
 H         3.7505681933        5.6434996063        5.1343687243
 H         1.1469362390        7.3633344242        5.0551146273
 H         0.6363686893        6.8828428875        3.4687644288
 H        -0.3314074170        6.7968313102        4.9183207339
 H         2.1125104631        4.8211131128        8.8245026132
 H         1.6800522016        3.1361052592        8.8427743964
 H         5.5413327329        6.5601616010        8.9265474127
 H         7.0249207106        5.4992262358        9.2449255716
 H         5.5883604414        4.9133752595        8.4052255289
 H         3.7662086894        3.3747515695       12.1228320078
 H         3.2052870788        2.1948662955       11.1521098351
 H         2.4842171489        3.7298511406       11.0425482581
 H         6.5578095438        2.7847182389        9.8150513484
 H         5.5411685935        1.8806229021       10.8222388316
 H         5.2554039807        1.7760349779        9.1247197316
 Na       -2.2030072962       -2.6405480447       -2.9500522110
