155

 C        -0.6715893061        5.7375096134       -5.1204797869
 C         0.0875520496        5.0632006760       -6.1712102275
 C         1.7484179099        5.1576050889       -6.1959516934
 C         2.0661818654        4.1406940778       -5.0547576805
 C         1.8782802414        2.5787255452       -5.3685724578
 C         2.2301747667        4.6334597517       -7.5230683497
 C         2.2048941580        6.5183087408       -5.8399069494
 O        -0.4144751580        4.2995546752       -7.0153693101
 O         2.1770479600        4.4639403221       -3.8570933278
 C         1.1057727811        1.8107986294       -4.3229640550
 C         1.1390122317        0.3365544790       -4.6215186910
 C         0.7310723658       -0.5842521106       -3.2415879568
 C        -0.4865812940       -1.4582685899       -3.9303218873
 C        -0.2166483815       -2.4823302412       -5.0114663841
 O         1.3987049591       -0.2836100587       -5.6372971914
 O        -1.6578143856       -1.2470570196       -3.6042112607
 C         2.0100948510       -1.6641935290       -3.1412660456
 C         0.5366459092        0.1331215545       -1.8215464581
 C        -1.4011373670       -3.0846290921       -5.7733224397
 C        -2.2564895558       -3.9907273641       -4.8775927133
 C        -3.6077120480       -4.7205840505       -5.5047120608
 C        -4.8829456763       -3.8775449461       -5.0756573769
 C        -6.0157762739       -3.5714147399       -6.0025728597
 C        -3.5532009608       -4.9355120759       -7.0548501663
 C        -3.7296600774       -6.1624724220       -4.9456546055
 O        -1.8688810780       -4.4268855600       -3.7612918729
 O        -4.8307502273       -3.3434136507       -3.9524835275
 C        -6.8992085994       -2.5266927479       -5.3162341241
 C        -7.3281812085       -3.1917546304       -3.9759866200
 C        -7.5749149139       -2.2748155763       -2.7080573727
 C        -6.2125366262       -2.2770672795       -1.9900302788
 C        -5.8348939947       -3.4844955889       -1.0152090286
 O        -7.3739554984       -4.4230558306       -3.8629282711
 O        -5.3493757305       -1.4710710433       -2.3833183556
 C        -7.8965226389       -0.7811426468       -3.0139606618
 C        -8.7985213511       -2.8474268700       -1.7472684203
 C        -5.1335017039       -2.8786888880        0.1404264092
 C        -3.7225359545       -3.6219109755        0.3982999849
 C        -3.3689121271       -4.4780588272        1.6670792841
 C        -2.2295642504       -3.4908406736        2.3933510428
 C        -1.0730576392       -3.0294967501        1.6230847876
 C        -4.5806610562       -4.6879508401        2.5675534667
 C        -2.7451995079       -5.8197367193        1.1959304808
 O        -2.9543681843       -3.5535256695       -0.4968572382
 O        -2.6488070158       -3.0707471300        3.4289334123
 C        -0.1587317448       -2.0808825137        2.4116979346
 C         1.1970597290       -1.6576510674        1.9844448044
 C         1.8173788504       -0.4286947132        2.6177634232
 C         0.6051368688        0.6084369125        2.8201011798
 C        -0.1102947719        0.6303894272        4.1857654383
 O         1.7810870652       -2.4070745003        1.1700185247
 O         0.3368678731        1.3680172679        1.9576864738
 C         2.4366935019       -0.9352517020        3.9984459105
 C         2.8236443981        0.1672039329        1.7269751599
 C         0.0976167339        2.0104424168        4.7999750752
 C         1.4435891292        2.3665886713        5.3172994043
 C         1.7140065927        3.9591518204        5.0384541009
 C         2.9060652179        4.6277048104        6.0032182618
 C         4.0462488495        3.6428629173        6.2824867469
 C         2.2184161745        4.2291647009        3.4802918287
 C         0.5247774011        4.8400894395        5.5138679228
 O         2.1347048798        1.6513440387        6.0255930418
 O         2.8623513505        5.7567149942        6.4559500489
 C         5.0690448510        4.3715377518        7.1591689286
 C         5.8335498000        3.4186625916        8.0358148883
 C         7.1892688163        3.9269601317        8.4701803447
 C         8.1365439920        3.8614285623        7.2644056716
 C         8.8526968411        2.6070842484        6.8943521146
 O         5.5208264280        2.2636013474        8.2550609249
 O         8.3543648092        4.8585480388        6.5582855736
 C         7.0063142947        5.3826395827        9.0728856038
 C         7.8237383499        2.9622990225        9.6356648898
 H        -1.7093174859        5.8014888682       -5.4005364338
 H        -0.6319450939        5.1109309152       -4.2358788925
 H        -0.3903068418        6.7075492883       -4.6511950792
 H         1.3866053334        2.3569306827       -6.3743251385
 H         2.7828872708        2.1521446541       -5.5634490660
 H         1.6982018930        3.7503129340       -7.8244192540
 H         3.2979769172        4.3925815491       -7.7085042680
 H         1.8515506440        5.4335769980       -8.2051158087
 H         1.9060019929        7.3177260938       -6.6134357927
 H         1.8209400592        6.7379387652       -4.8234369472
 H         3.2527368473        6.4515800905       -5.7661841449
 H         1.4904069605        2.0956752685       -3.3552201951
 H         0.0028447066        2.1475780273       -4.3893317338
 H         0.5183123093       -2.2119017088       -5.7332441458
 H         0.2276279600       -3.3187558062       -4.4026373046
 H         1.6982080759       -2.6335798837       -2.6318890911
 H         2.7685811602       -1.3534601916       -2.4756959274
 H         2.3085996483       -1.8125911760       -4.0930066722
 H         1.5814199175        0.6325282692       -1.5990094267
 H        -0.2140250921        0.8914532847       -1.9092567384
 H         0.1819063864       -0.5921997887       -1.0347757242
 H        -0.9330525945       -3.8199232787       -6.3911399504
 H        -1.9017089430       -2.3113386847       -6.3999973799
 H        -5.5318244359       -3.0342987280       -6.8758722870
 H        -6.4745737393       -4.4579265036       -6.4084239031
 H        -2.8047810651       -5.6342926800       -7.3037667244
 H        -3.4709372586       -3.8758000476       -7.5166449733
 H        -4.4971401086       -5.5093124999       -7.3827346092
 H        -4.6600364816       -6.6122911397       -4.9262192822
 H        -2.9374933756       -6.8582842188       -5.2726380313
 H        -3.3228090913       -6.0799229377       -3.9521131243
 H        -6.3315754629       -1.5548778640       -4.9649942636
 H        -7.7125849313       -2.2706099234       -6.0883733659
 H        -6.8739684011       -3.8794176827       -0.8153761132
 H        -5.2668365059       -4.0597775035       -1.7533597260
 H        -8.5997378208       -0.6845226216       -3.7956013859
 H        -6.9336745742       -0.1740423675       -3.0999203485
 H        -8.4580200060       -0.4292917987       -2.1153828558
 H        -8.6624616024       -3.9243164724       -1.5480557656
 H        -8.9095000841       -2.3100799181       -0.7404522479
 H        -9.7478026275       -2.6772360316       -2.4086272408
 H        -5.7429246453       -2.8676452471        0.9552285586
 H        -4.7858317496       -1.8316475031       -0.1599393063
 H        -0.4051082406       -3.6770830131        1.0736304304
 H        -1.5903667637       -2.4364950705        0.8346736160
 H        -4.7006243308       -4.0570137962        3.4635992630
 H        -4.6782323866       -5.7293100227        2.8238127025
 H        -5.4741786702       -4.4713298433        1.9200163063
 H        -3.4068471718       -6.4489586130        0.6932899232
 H        -1.8374285809       -5.7398406055        0.5950366136
 H        -2.5114242901       -6.2931396136        2.1569823371
 H        -0.9088343797       -1.2882472432        2.3954058769
 H        -0.0028794822       -2.5274806410        3.4048206010
 H        -1.1001784976        0.3790538821        4.0908626234
 H         0.2417813986       -0.0949443040        4.8092851141
 H         1.7189370129       -1.3591810538        4.7259379221
 H         2.6867852903       -0.0889618661        4.5521869523
 H         3.2150739097       -1.6118128924        3.9169822483
 H         2.7181166926       -0.2536162255        0.6682432513
 H         2.6164669400        1.2575793458        1.5571497781
 H         3.9117964530        0.1337906573        2.0197695076
 H        -0.4718318350        2.0188450082        5.7276343188
 H        -0.2814729781        2.7845613623        4.1441166938
 H         3.7005072344        2.7584192634        6.9275474981
 H         4.5419082741        3.1543019019        5.4126258384
 H         1.4948805920        4.7399169100        2.9878872741
 H         2.5632237711        3.3940243387        2.8955451802
 H         3.1555729316        4.8829855857        3.5699595472
 H         0.7770618878        5.9056322655        5.2536762900
 H        -0.4209180338        4.5409965150        4.9708032833
 H         0.3724357204        4.6630136805        6.5671300417
 H         5.8978540928        4.8856317255        6.5942992352
 H         4.5477530591        5.1004050679        7.8087396790
 H         8.1798307615        1.8011331904        6.6611331917
 H         9.3658453616        2.7924550342        6.0184145120
 H         9.4028910515        2.1947518634        7.6644202113
 H         7.8455545577        5.6935172190        9.7230907549
 H         6.0585953530        5.5036579865        9.7573964547
 H         6.7131053840        6.1719320968        8.4206322498
 H         7.1500967053        2.6985959461       10.3859983214
 H         8.4337436021        2.1376304409        9.1271314857
 H         8.5742013261        3.5381019429       10.1488429922
 Na       -3.0337179322       -2.2534725554       -2.4170377303
