155

 C        -0.9056841383        5.8890083924       -5.4140717009
 C        -0.1854984574        4.9618083803       -6.3899572162
 C         1.2825049715        5.0340606809       -6.3552772300
 C         1.6598810838        4.0469788165       -5.2646890142
 C         1.7396674282        2.5017523454       -5.5617909961
 C         1.9015012596        4.4928767689       -7.6904685135
 C         1.9196627544        6.4501960004       -5.9636387413
 O        -0.7277968363        4.0256538675       -6.9297864014
 O         1.6886868974        4.3685430003       -4.1094244726
 C         1.5531755090        1.7424760873       -4.2520592130
 C         1.6177589321        0.2372761698       -4.1843066470
 C         0.9995920881       -0.6948047291       -3.0910886116
 C        -0.2766788685       -1.4973551825       -3.8437644482
 C         0.0454512785       -2.4135875830       -5.0839686051
 O         2.3877575048       -0.3509685104       -4.9643280559
 O        -1.4416326954       -1.2566221433       -3.5056247525
 C         1.8875346846       -1.7100414161       -2.4772594771
 C         0.4379135765        0.1874939702       -2.0721606138
 C        -1.2186493693       -2.6534232294       -5.8790132269
 C        -2.1747372700       -3.5627766826       -4.9691126190
 C        -3.3942907629       -4.2653957377       -5.7465437621
 C        -4.8429213746       -3.7705778597       -4.9240704420
 C        -5.9228673253       -3.3016240394       -5.9010555441
 C        -3.3937548936       -4.2021347773       -7.2499934229
 C        -3.2615210050       -5.8054037046       -5.4101959110
 O        -1.9985212597       -3.7094588124       -3.7560519707
 O        -5.0882320563       -3.8765901178       -3.7600634572
 C        -6.9717955583       -2.4646540381       -5.2318917529
 C        -7.9087935932       -3.2399559794       -4.0193656215
 C        -8.0001471562       -2.3946725884       -2.5167508690
 C        -6.6626238431       -2.3910264370       -1.9186987392
 C        -6.1870275170       -3.2791226650       -0.7736412965
 O        -8.3985050842       -4.3050400488       -4.1363375338
 O        -5.8078577484       -1.5678812681       -2.2995143948
 C        -8.3634793092       -0.9050443664       -2.7330091696
 C        -9.0462495990       -3.1237158962       -1.7210362151
 C        -5.2916949934       -2.6381393988        0.4282196524
 C        -3.9117529100       -3.4170736882        0.5316281467
 C        -3.5261329099       -4.2550047082        1.7649172351
 C        -2.4940849399       -3.2988450389        2.5682062341
 C        -1.0048677127       -3.3201310862        1.9403810829
 C        -4.5417702361       -4.5884707813        2.9415526751
 C        -2.8495871198       -5.7032795128        1.2367830830
 O        -3.0835815520       -3.2441588836       -0.3203720068
 O        -2.8893127384       -2.5073938168        3.4056723721
 C        -0.0439310554       -2.5715254013        2.7796468453
 C         1.1643636074       -2.0615492135        1.9648670825
 C         1.9184735241       -0.7706192718        2.5463464225
 C         0.8576704423        0.1628652804        3.0217464999
 C         0.4610463272        0.2356943463        4.6880329551
 O         1.5380644508       -2.4880243251        0.8106314257
 O         0.1269586946        0.7498035114        2.2751876162
 C         2.9163783340       -1.1591775312        3.6896431671
 C         2.6069162275       -0.0065619077        1.2761830987
 C         0.0473270122        1.7516657053        5.0604508105
 C         1.4373074054        2.3879852813        5.2781489312
 C         1.6001940206        4.0392076339        5.2709994682
 C         2.9635934992        4.6509702086        6.1373938720
 C         4.1874909576        3.6750861689        6.3199929709
 C         1.8590862453        4.3950475737        3.7400669585
 C         0.3860253272        4.9593584621        5.7572466475
 O         2.4557493270        1.7614750023        5.4699697891
 O         3.0019861615        5.7501922931        6.5043042147
 C         5.4325176745        4.3979777821        6.8129444683
 C         6.3855242238        3.5179365605        7.8471434207
 C         7.8808799888        4.0532398525        8.3514457571
 C         8.5308667386        3.6304169300        6.9186625935
 C         9.0054337593        2.2174759698        6.7603239886
 O         5.8885155040        2.5028015074        8.2961580012
 O         8.7333317968        4.4453662409        6.0713294343
 C         8.1259519577        5.5057357677        8.5743817404
 C         8.4001281794        3.2208242897        9.4272711131
 H        -1.8444697688        6.4914217185       -5.7837330942
 H        -1.2988204423        5.3596202208       -4.6010848838
 H        -0.1895537002        6.4894803484       -4.8246491019
 H         1.0509996679        2.0988013355       -6.3915129348
 H         2.5375988399        2.0596163598       -6.0124504406
 H         1.3279061345        3.6334510328       -7.9530968869
 H         2.8464719421        4.0925661658       -7.6730967844
 H         1.8718751686        5.2997165904       -8.4880571732
 H         1.4205031982        7.3063539523       -6.5453805408
 H         1.9628281299        6.4559418625       -4.8554310722
 H         2.9451244032        6.3046770734       -6.2653208194
 H         2.4257897589        2.0285714159       -3.6609363415
 H         0.6236810675        2.1146771101       -3.7484545139
 H         0.7311055676       -1.8325902540       -5.6980876789
 H         0.5560032617       -3.3765065422       -4.9118586656
 H         1.3144274693       -2.1474409847       -1.6597399480
 H         2.8960073073       -1.4109749771       -2.3000981642
 H         1.9293650118       -2.5249548324       -3.1787595337
 H         1.2743314005        0.5036413175       -1.5013660920
 H        -0.2412576350        0.9829267258       -2.5403288762
 H        -0.1437893716       -0.3840986169       -1.3001142416
 H        -1.0030001113       -2.9955384429       -6.8695571530
 H        -1.7792110049       -1.6909578519       -5.8695882046
 H        -5.4380730241       -2.6726309147       -6.7261928521
 H        -6.3687160217       -4.1937734083       -6.2775489262
 H        -2.5232400414       -4.7431987514       -7.6432318505
 H        -3.4276761604       -3.1001192612       -7.6326137380
 H        -4.3240582590       -4.7179060018       -7.6516315147
 H        -4.0240485925       -6.3901404528       -5.9779790271
 H        -2.3105569896       -6.2552887718       -5.8944392429
 H        -3.1637608325       -6.0981997800       -4.3702981761
 H        -6.5618930523       -1.5302505817       -4.7022211527
 H        -7.7818960440       -2.2910673602       -5.9749821964
 H        -6.9544481830       -3.7747444382       -0.2048367172
 H        -5.4070289324       -3.9583546794       -1.2617835606
 H        -9.2533950928       -0.8024882478       -3.3659501612
 H        -7.4838722051       -0.3117733174       -2.9594668530
 H        -8.7727347729       -0.5557118665       -1.7329574688
 H        -9.0631103343       -4.1172096817       -2.1038213096
 H        -8.9499963138       -2.8730642693       -0.6224614786
 H       -10.1049987107       -2.8039385008       -1.9411879341
 H        -5.8343244954       -2.6954097669        1.3227224957
 H        -5.0347467440       -1.5245035246        0.3481952352
 H        -0.4822252970       -4.3356960729        1.8782434029
 H        -0.8384071188       -2.9846522009        0.9367405532
 H        -5.5659043852       -4.1281439460        2.9189468430
 H        -4.0784108242       -4.4475088664        3.9511743170
 H        -4.7955676675       -5.6751000012        2.8371100472
 H        -3.5931687469       -6.3865973883        0.8462851222
 H        -2.1560875704       -5.5360522158        0.4170931890
 H        -2.2868016629       -6.1300299387        2.0794104446
 H        -0.6819769492       -1.8066608873        3.2205861661
 H         0.2944142005       -3.2226530426        3.6583942777
 H        -0.2685704732       -0.4448384332        4.9153362065
 H         1.2383742649       -0.0430371450        5.2850313191
 H         2.3018053441       -1.7808756284        4.4244780511
 H         3.3532392221       -0.3149200401        4.2010929230
 H         3.6616372033       -1.8625811469        3.4419657644
 H         3.4381588337       -0.6036884550        0.8553607346
 H         2.0897869701        0.3257299260        0.4574975877
 H         3.1644696581        0.9016361104        1.6636113715
 H        -0.5297996049        1.8334877227        5.9840408638
 H        -0.3839836729        2.2612182240        4.1756759239
 H         4.0341986888        2.8442493500        7.0530933182
 H         4.4427230761        3.2891872913        5.3385947835
 H         2.5826868308        5.1963370328        3.7491000338
 H         0.9149344415        4.7675218125        3.2451054489
 H         2.2177932630        3.5823943888        3.1882314785
 H         0.7995239502        5.9963476484        5.4921469970
 H        -0.4236697549        4.8447479196        5.0452073694
 H         0.1641351546        4.7807028842        6.7125478589
 H         5.9887164896        4.9333608541        5.9842991516
 H         5.1248484418        5.1645291677        7.5479474733
 H         9.1514647817        1.8606800646        5.7630526818
 H         9.9738466958        2.2372279843        7.1962338876
 H         8.3166662049        1.4678277897        7.1582706591
 H         9.1187326164        5.8833427796        8.9286199580
 H         7.4357177563        5.9267541642        9.2788099363
 H         7.9288565157        6.0695765753        7.6220109527
 H         8.8329120403        3.8089269288       10.2217173704
 H         7.5862121795        2.5659253741        9.8712349562
 H         9.1179533518        2.5708708314        9.0022707752
 Na       -3.5160276580       -2.2790037291       -2.5961332934
