155

 C        -1.9105384102        5.7066256614       -7.0806306468
 C        -1.2743557130        4.3535945012       -7.4221412402
 C         0.3090969754        4.1285665524       -7.1455474948
 C         0.2001823809        3.7161910500       -5.5648915493
 C        -0.1503807821        2.1334144076       -5.1515135419
 C         0.8548194922        2.9746043623       -7.9709785025
 C         1.0612567956        5.4013765112       -7.1634749767
 O        -1.9807947395        3.4715085014       -7.8349189530
 O         0.3770847590        4.5228079694       -4.6890991115
 C         0.0764404941        1.9255784668       -3.6033943265
 C         0.6854715772        0.4992871827       -3.2611729984
 C        -0.0037961255       -0.1338411732       -2.0132447672
 C        -1.1070392546       -1.2489479610       -2.5753305339
 C        -0.7341045457       -2.1279191110       -3.7483888606
 O         1.3815193310       -0.1694723354       -4.0505657821
 O        -2.1902752000       -1.3208644270       -2.0545820999
 C         1.0060395593       -0.9691760232       -1.2310938787
 C        -0.6648453964        0.7922029374       -1.0463434403
 C        -1.5862701791       -1.6296131607       -5.0464661653
 C        -2.5190856952       -2.7107944638       -5.5558984556
 C        -4.0350141046       -2.4530469105       -6.3275591646
 C        -5.0842939049       -3.1727422626       -5.5736159648
 C        -6.4976956239       -3.2100873263       -5.9970606058
 C        -4.4206229513       -1.0368745191       -6.4608244439
 C        -3.9205554338       -3.2381387297       -7.7102663531
 O        -2.1943936460       -3.8620428034       -5.3162773038
 O        -4.8316221308       -3.5946201458       -4.4627688867
 C        -7.2536967586       -2.3681987307       -4.9258530408
 C        -7.5117595479       -2.9792289863       -3.6771781720
 C        -7.5369494248       -2.1098711511       -2.2865769141
 C        -6.0755503244       -1.8904541795       -1.7699634397
 C        -6.0008763150       -1.6926522659       -0.2227786483
 O        -8.0415427979       -4.1149808562       -3.7288911884
 O        -5.1384434854       -1.7282886619       -2.5066166251
 C        -8.0994254168       -0.6954691971       -2.6367470736
 C        -8.6030965034       -2.7785844143       -1.2895696455
 C        -4.6545662517       -1.9770434241        0.5984692748
 C        -4.2784920665       -3.5086351764        0.5489274875
 C        -4.1585277372       -4.2042187924        1.9113303134
 C        -3.0932434971       -3.3416479615        2.8303035862
 C        -1.5538502177       -3.4064615756        2.4249112291
 C        -5.6806374477       -4.1643613268        2.5813387749
 C        -3.4647039611       -5.6542927668        1.7659412853
 O        -4.2174188651       -4.1483327466       -0.4918261721
 O        -3.4164557084       -2.6282875193        3.7819509164
 C        -0.5771231742       -2.5505971075        3.2426479758
 C         0.9441246838       -2.3712585880        2.7190257811
 C         2.0596112356       -1.8317091134        3.6976854128
 C         1.5185100529       -0.4123451891        4.0347651500
 C         1.8295731255       -0.1589784552        5.5282709514
 O         1.1022720374       -2.6016120413        1.5658025177
 O         0.8034054533        0.1775637576        3.3011134558
 C         2.2723733570       -2.8152756224        4.9055319400
 C         3.3728184130       -1.7096881769        3.0398381530
 C         1.9498909634        1.3270324384        5.9584865564
 C         2.7452592841        2.3659464340        5.0905405283
 C         2.7664100493        3.7965823004        5.6090134613
 C         4.2257621543        4.0337921152        6.5272675436
 C         5.5937983862        3.4335849347        5.8397439977
 C         3.0155413464        4.8941792974        4.4935840347
 C         1.6331015393        4.2158799968        6.4998777170
 O         3.4732610335        2.0115824108        4.2019569189
 O         4.3276058687        4.7868121969        7.5076776473
 C         6.6717049448        4.4683462423        6.2036382290
 C         7.8569499379        3.8471230361        6.9013764340
 C         9.3186629083        4.1610904856        6.2300623522
 C         9.5330089091        2.9496531632        5.3735492146
 C        10.3936088985        1.8622213780        5.9712168390
 O         7.7293965276        3.1956305454        7.9159468697
 O         9.1015176669        2.7476284099        4.2574880108
 C         9.4489909124        5.3658947169        5.4359354910
 C        10.3616594794        4.2514644845        7.3639230385
 H        -2.3197298545        6.0668765175       -7.9811252568
 H        -2.7977165738        5.4658250895       -6.3038047958
 H        -1.3622593355        6.5052184081       -6.4510749300
 H        -1.2587954115        2.1345579111       -5.4119257783
 H         0.3143134780        1.3839087682       -5.6864434951
 H         0.0843225835        2.1933267275       -8.1652405751
 H         1.5991395699        2.4173015594       -7.4694301813
 H         1.2763604827        3.2727641227       -8.9355383531
 H         0.4845070391        6.1652966862       -7.5697065557
 H         1.3289100682        5.5715468426       -6.1575219503
 H         2.0268835059        5.3531086601       -7.6980617332
 H         0.6119717521        2.7397763285       -3.0941891020
 H        -0.9358418024        1.8620180707       -3.1242597699
 H         0.2276179826       -2.0957609770       -4.0794752612
 H        -0.9978994745       -3.2329895973       -3.7485063940
 H         0.4431686396       -1.6117327154       -0.4563653412
 H         1.9789166971       -0.4661726531       -0.9315118431
 H         1.4383465023       -1.7712142007       -1.8673094434
 H         0.0973115985        1.3782124413       -0.5056496529
 H        -1.3559843917        1.5029825373       -1.5100573020
 H        -1.1999247193        0.3953097644       -0.2073178943
 H        -0.7467389812       -1.5375742840       -5.7624650518
 H        -2.0432060713       -0.6193231294       -5.1179198859
 H        -6.6616516902       -2.7985032833       -6.9805992694
 H        -6.8454497177       -4.2420571403       -5.9679079472
 H        -4.0205069863       -0.5899942104       -7.4094760776
 H        -3.9687753641       -0.3676864161       -5.8038628378
 H        -5.4485088162       -0.9939767083       -6.2870566754
 H        -4.7014209096       -2.8763361162       -8.4484311269
 H        -2.9727156105       -3.0018398866       -8.1836766787
 H        -4.0570999138       -4.2966229326       -7.5010362314
 H        -6.7548677013       -1.3716725606       -4.9189685251
 H        -8.2614117040       -2.2536419295       -5.3041337624
 H        -6.1971158024       -0.5500257833       -0.1251274721
 H        -6.9656797749       -2.1202787557        0.4145152173
 H        -9.1899242349       -0.5705231125       -2.6564871119
 H        -7.7565708492       -0.3140396548       -3.5253340536
 H        -7.6533687163        0.0742606109       -1.9662077759
 H        -8.4247224081       -3.8373428205       -1.1671368449
 H        -8.7923610022       -2.2962710510       -0.3721250686
 H        -9.5315348357       -2.8112003040       -1.6658260308
 H        -4.7171232209       -1.6901746339        1.5962630751
 H        -3.8111166426       -1.5171994064       -0.0517279917
 H        -1.2890851278       -4.4500339091        2.4996543068
 H        -1.6340678710       -3.1052548639        1.3368531657
 H        -6.2776387901       -3.5397713591        1.8960540253
 H        -5.6890901227       -3.6028209985        3.5267423441
 H        -6.0883830894       -5.1902942845        2.5897835466
 H        -4.0291230576       -6.1707555522        1.0289450542
 H        -2.4590974249       -5.4736822313        1.4576495084
 H        -3.2972151742       -6.2767723880        2.6478908930
 H        -0.9575250498       -1.5254939139        3.5192078407
 H        -0.4310131038       -3.0713449272        4.1872221104
 H         1.0665399476       -0.6848030230        6.0343161768
 H         2.7159915355       -0.5786147885        5.8340589439
 H         1.3905784974       -2.9032671012        5.6058601030
 H         3.2564008881       -2.7155844767        5.3896186766
 H         2.4625791405       -3.8113174632        4.5111059324
 H         4.1857248588       -1.8199576430        3.6251673235
 H         3.4682796379       -2.5291904268        2.3479711989
 H         3.5690979982       -0.9646272175        2.4111644140
 H         2.3534100929        1.4892814413        7.0175426938
 H         0.9145607030        1.7799678973        6.1092584163
 H         5.9535631782        2.5509583615        6.3032680550
 H         5.4753561072        3.1651981664        4.8018394984
 H         3.3801351087        5.7853783718        4.9733161011
 H         2.1757212271        5.1990709241        3.8410821669
 H         3.9046732643        4.6039682927        3.8078638676
 H         1.9778743185        5.2022775427        6.7959730848
 H         0.6836458457        4.2535737889        6.0683004882
 H         1.7132048501        3.5704618271        7.4592245970
 H         7.0578706991        4.7912027046        5.2221548783
 H         6.1933549594        5.3004852590        6.7616536670
 H        10.1651981275        1.0428037825        5.1613422764
 H        11.5675120870        2.0445649027        5.9918181687
 H        10.0849711271        1.4350809125        6.9602269281
 H        10.3740038074        5.3899913363        4.8982787423
 H         9.3673395283        6.2680454744        5.9970648586
 H         8.8855034222        5.5003387937        4.5173170550
 H        11.3556945208        4.4790832784        6.9685353109
 H        10.2610019539        5.1573026755        8.0136561971
 H        10.4254766562        3.3630763372        7.9092059900
 Na       -3.6129057789       -3.1975040671       -2.5501574799
