155

 C        -3.8298094134        2.3803960409       -8.5824780771
 C        -2.7514675527        2.2995367163       -7.4606062744
 C        -2.0851697880        3.6230248996       -7.2052643998
 C        -1.8469455267        3.5744787480       -5.6086572537
 C        -0.5916719921        2.8496248786       -5.1756852529
 C        -0.6891179860        3.7472234937       -8.0919071434
 C        -3.1190375954        4.7931260376       -7.5033751157
 O        -2.5388490734        1.2730151100       -6.8071100368
 O        -2.6723439162        4.0333962138       -4.8298711734
 C        -0.8035865145        2.0351048631       -3.9083740000
 C         0.4070072211        1.2437623398       -3.5876911517
 C         0.0845110581        0.1815313680       -2.4539676804
 C        -1.1570845902       -0.5670892997       -2.6805706300
 C        -1.3310004074       -1.6743432122       -3.8191269177
 O         1.5346191217        1.5202024340       -3.8796235659
 O        -2.1438144374       -0.1930989011       -2.1238840276
 C         1.3831286908       -0.6890820488       -2.4319127766
 C         0.0769984803        0.9330961750       -1.1885569863
 C        -2.0171564773       -1.1263140299       -5.0481570057
 C        -2.7394277754       -2.2991862197       -5.8847155562
 C        -4.3120200514       -2.2569135814       -6.2379632479
 C        -5.1587198341       -1.5636238284       -5.1490709570
 C        -6.7638306734       -1.5753370145       -5.2612745291
 C        -4.5227204564       -1.4956732861       -7.6070067633
 C        -4.8841037643       -3.6834222609       -6.5483683624
 O        -2.0997031891       -3.2931111957       -6.1433625350
 O        -4.6445074779       -1.1375348408       -4.1429068191
 C        -7.4476294584       -0.8382549089       -4.0641153374
 C        -7.4610867329       -1.5522581647       -2.7790440120
 C        -8.2739259743       -1.0436040941       -1.5994545568
 C        -7.1740448197       -0.8204490652       -0.4452082868
 C        -7.2748499275       -1.8132501689        0.8513661285
 O        -6.9533005470       -2.7077350056       -2.6150143630
 O        -6.2816315911        0.0428169231       -0.5222116193
 C        -8.7690900541        0.5283138058       -1.8710162278
 C        -9.4240306043       -2.0674044369       -1.4677157469
 C        -5.9609396955       -2.1439211374        1.5587284486
 C        -4.7910813913       -2.7717952575        0.7210235087
 C        -3.7870487680       -3.7948944851        1.4508589878
 C        -3.1588447479       -3.3328294154        2.8215275135
 C        -1.6596704909       -3.3979555892        3.1349797301
 C        -4.6405701436       -5.0076707207        1.8012619262
 C        -2.6787746490       -4.1209367500        0.3514654187
 O        -4.5564948584       -2.3935588140       -0.4596056934
 O        -3.9794014706       -2.8835028017        3.6346792255
 C        -1.3567227075       -3.3065807573        4.6753051780
 C         0.1861753425       -3.2829533017        4.9869338297
 C         0.7293399800       -2.5691076428        6.2566022245
 C         1.1961509605       -1.1272938864        5.6058854927
 C         2.5845547897       -0.6377454838        6.0272933991
 O         1.0231602772       -3.9687151449        4.2600062401
 O         0.3539019550       -0.5070041276        5.0238840700
 C        -0.2786832792       -2.4496706974        7.4160312226
 C         2.0436795373       -3.4916019031        6.5569413821
 C         3.0649216522        0.7423685776        5.5889628548
 C         4.6536172131        0.9890367834        5.5072622099
 C         5.0582110244        2.2919533932        4.9342831335
 C         6.4196775369        2.7980805237        5.8241981541
 C         7.8837684142        2.2084817417        5.6008084627
 C         5.6425731051        2.1013256178        3.4721446015
 C         3.8089095998        3.3566780232        4.9502123065
 O         5.4096776783        0.1084739614        5.8128039363
 O         6.2377158477        3.7315001644        6.5721022702
 C         8.6918000464        3.2858115634        4.7732922550
 C        10.1837210687        3.0835986619        4.9072626812
 C        11.0694527665        3.9628836891        4.0567212995
 C        10.7797594362        3.2334570506        2.7090832175
 C        11.5093608235        1.9494269621        2.2447085639
 O        10.6166671725        2.4186544106        5.8309340022
 O         9.7224139413        3.5895000172        2.1458089164
 C        10.4646938679        5.4565940605        4.0530283600
 C        12.5424712259        4.1877022018        4.5050904687
 H        -3.4317211005        2.7900752012       -9.5660458424
 H        -4.3692360497        1.4284381552       -8.8473564378
 H        -4.6797066806        2.8376489905       -8.1304581519
 H        -0.3102471546        2.2691737916       -5.9670209925
 H         0.2440314730        3.5296755331       -5.0058803241
 H        -0.0929159961        2.8792694644       -7.5982455669
 H        -0.3273698621        4.7517542879       -7.8818242503
 H        -0.8680471776        3.7006549986       -9.1439112223
 H        -3.1903896549        4.9436778262       -8.5883239931
 H        -4.2005169003        4.5991982696       -7.1711710955
 H        -2.8045753129        5.7238546294       -6.9230711368
 H        -0.8873043182        2.8866637416       -3.2010197774
 H        -1.6911593533        1.3908805726       -3.8264421349
 H        -0.3486414937       -2.0011861116       -4.0300924155
 H        -1.9133423366       -2.5432689803       -3.3700073165
 H         1.3924230973       -1.2910015221       -1.5345933584
 H         2.3008153851       -0.1204274559       -2.1563369149
 H         1.6195466809       -1.1650314880       -3.4642152947
 H         0.7670440667        1.8195692608       -1.2975747526
 H        -0.9124227755        1.2279405524       -1.0711584180
 H         0.3684224693        0.3221608995       -0.3523190248
 H        -1.1520934832       -1.0014281778       -5.6136874104
 H        -2.5228119618       -0.1292944042       -4.9540512536
 H        -7.0448724117       -1.0754003198       -6.2393307677
 H        -7.1616932605       -2.6209603646       -5.3066357744
 H        -4.4787957745       -2.0477517338       -8.5068213844
 H        -3.6649530158       -0.9155449745       -7.8193872845
 H        -5.3655338383       -0.6944093799       -7.6915877347
 H        -5.9977030105       -3.8180225044       -6.4157533855
 H        -4.5400567130       -3.7922845740       -7.5006309398
 H        -4.3096865195       -4.3331099654       -5.8748725568
 H        -7.0903056862        0.1178124258       -3.8371879062
 H        -8.4831533863       -0.7808077712       -4.4006110392
 H        -7.8424426673       -1.4096003648        1.5647306413
 H        -7.9468558828       -2.5972755075        0.7471811309
 H        -9.2579288435        0.6800183681       -2.8355529375
 H        -7.9527697213        1.1533495299       -1.8284083921
 H        -9.5574974963        0.6907361331       -1.0835506546
 H        -9.4894033214       -2.6693273459       -2.4148627013
 H        -9.2574244802       -2.6517491851       -0.5951688213
 H       -10.4331899977       -1.6875921468       -1.4080915321
 H        -6.2785317886       -2.8117059296        2.3613290582
 H        -5.5893496187       -1.1322517948        1.8066121614
 H        -1.1461915789       -4.1981704163        2.7315704397
 H        -1.3076502975       -2.4934405260        2.6715417329
 H        -5.7158844994       -4.8028369819        1.8428913915
 H        -4.2683078355       -5.3829764354        2.7148489021
 H        -4.4245922181       -5.7708295217        1.0357786399
 H        -3.0378916630       -4.6613681373       -0.5004738610
 H        -2.0990187886       -3.2241061897        0.0365563850
 H        -1.9327062114       -4.8977951342        0.6647812088
 H        -1.9500915614       -2.6186789585        5.3537561586
 H        -1.5831325480       -4.3048935083        5.0133716725
 H         2.4567306182       -0.7343995261        7.0839669202
 H         3.4271965637       -1.2935797870        5.8470874569
 H        -1.1657305689       -1.9184782318        7.0306682041
 H         0.2627003193       -2.0180670301        8.2686130066
 H        -0.6591120008       -3.4810273815        7.4799409359
 H         2.5041925651       -3.0843961931        7.4913803593
 H         1.6185062130       -4.4818497512        6.5301847028
 H         2.6640904096       -3.3254486218        5.6548844956
 H         2.5253870099        1.4267746643        6.2345609205
 H         2.6468490510        1.0930635908        4.6103907637
 H         8.4587093468        2.0181985856        6.5797345478
 H         7.8292515000        1.2028313487        5.1486429614
 H         6.0709294883        3.0111766851        3.0405557185
 H         4.8117162974        1.6747326808        2.8687496202
 H         6.3324140535        1.3642566821        3.5485160287
 H         4.2965401414        4.2848961949        4.8624778866
 H         2.8567445731        3.1417828549        4.3248682846
 H         3.4082854690        3.4727938813        5.9486676454
 H         8.4039277509        3.1123088610        3.6812373609
 H         8.6392993110        4.3217144892        5.2600541412
 H        10.7606187150        1.1924143793        2.3010078060
 H        11.7881169273        2.0605472561        1.2577682000
 H        12.4494663148        1.5588470807        2.6328266403
 H         9.4289158971        5.6387719203        3.9452427307
 H        10.7060548472        5.8794002369        2.9928818384
 H        10.9089508617        6.1491206318        4.7162774645
 H        12.8300536328        5.0689868883        3.9787167300
 H        12.6227391304        4.3175761797        5.6360774253
 H        13.0998785353        3.3720572411        4.1211645826
 Na       -4.3460247145       -0.8458292144       -1.8334951584
