155

 C        -3.2927321689        4.2642712855      -10.5330002658
 C        -3.4864956470        3.6119836664       -9.1602844579
 C        -4.2057255049        4.3496804134       -7.9880422808
 C        -3.9951297209        3.6405845172       -6.6705204647
 C        -2.5075602000        3.2403379408       -6.2024642244
 C        -3.6212609614        5.7821644495       -7.7467226656
 C        -5.7505140482        4.3659377226       -8.4385281838
 O        -3.1509246449        2.4588254096       -9.0305052580
 O        -4.9224377071        3.3886978183       -5.8226142637
 C        -2.1945786769        2.2728617732       -4.9527367106
 C        -0.6459163222        2.0347613102       -4.7637730590
 C        -0.2778195104        1.4505309688       -3.2952290777
 C        -1.2066051220        0.1035597364       -3.1087722958
 C        -0.7412937601       -1.2473853742       -3.7858260461
 O         0.1897277193        2.0794124033       -5.6221384169
 O        -2.0368837194        0.2040763572       -2.2753682737
 C         1.1719992121        1.0582290279       -3.2448086190
 C        -0.6866483202        2.5589765958       -2.2286449276
 C        -1.8376986036       -1.8582268716       -4.7580668293
 C        -3.2283677850       -1.9789364138       -3.9419861788
 C        -4.5639387176       -2.2540810843       -4.6704575700
 C        -5.6247886185       -1.3717756890       -3.9645438849
 C        -7.2322732917       -1.5932253496       -3.9422306919
 C        -4.4799676431       -1.9855035454       -6.2102608529
 C        -4.6283114420       -3.8007762020       -4.4320909177
 O        -3.2886870751       -2.1010782501       -2.7432659564
 O        -5.1586903652       -0.4493463619       -3.3060575640
 C        -7.8901498001       -1.0365021018       -2.7425817288
 C        -7.0271324458       -1.1868485413       -1.4777443300
 C        -7.0578225388        0.1131819960       -0.5195556143
 C        -6.1054100368       -0.2467518571        0.6555095874
 C        -6.4846794096       -1.0877401823        1.8656329197
 O        -6.3444924417       -2.1208873506       -1.2394811754
 O        -4.9824324670        0.3471794906        0.5895188761
 C        -6.6936404771        1.4606968968       -1.2798232454
 C        -8.5053748277        0.3628661853        0.0926652473
 C        -5.3713148364       -1.5293117194        2.7782078951
 C        -4.3715938715       -2.5529675744        2.2179082693
 C        -4.0035274521       -3.7829451721        3.1485075630
 C        -3.1452920992       -3.2366629621        4.3706171722
 C        -1.6571182041       -3.0757253971        4.3358080085
 C        -5.4476529519       -4.5142497748        3.3224053970
 C        -3.0869112981       -4.7841923066        2.2681229730
 O        -4.0563577025       -2.4755961238        1.0775077896
 O        -3.7334502605       -2.9229433701        5.3347573932
 C        -1.0940795843       -2.2848083988        5.5169963075
 C         0.1750015982       -2.8911965360        6.1254986353
 C         1.1611206827       -1.9399379389        6.9092347092
 C         2.1716845770       -1.3956689056        5.8511841013
 C         3.4506220166       -2.2323650698        5.5703446196
 O         0.4644955462       -4.0628914796        5.8806286507
 O         2.0415043948       -0.3977308057        5.1372248035
 C         0.5847587310       -0.5205936926        7.4800655959
 C         1.8696021275       -2.7130231325        7.9647461919
 C         4.1446009865       -1.8812242926        4.2776927306
 C         5.3515238048       -0.8351690052        4.4173996146
 C         5.4941183317        0.3296101834        3.4351570226
 C         6.7666704513        1.4009284610        3.7253071873
 C         8.1462028027        0.6877914297        3.3918440941
 C         5.5676985642       -0.1968553473        1.9857297210
 C         4.2693124037        1.2986644522        3.5977051453
 O         6.2946180148       -0.9197568894        5.2429519855
 O         6.5857952154        2.6170640492        3.8480533287
 C         9.3259728194        1.7432823614        3.4335487323
 C        10.6479010291        1.1478721420        3.0447589539
 C        11.7509662278        2.2696799471        2.6012797151
 C        10.9280524476        3.4623556571        1.7276918606
 C        10.3824118731        3.0322674135        0.3506601611
 O        10.9340393686       -0.0812377074        3.0640953294
 O        10.6636970724        4.4932607113        2.2801504490
 C        12.4167111800        2.8463944197        3.8153162190
 C        12.9388303797        1.6857346641        1.8006825322
 H        -4.0911120099        3.8266959996      -11.2772041033
 H        -3.2613860252        5.2905809392      -10.6671431152
 H        -2.3561822813        3.9068468907      -11.0830116701
 H        -2.0486893795        2.8404001303       -7.1717541156
 H        -1.9976029320        4.3048931979       -5.9244909834
 H        -2.5714811750        5.7505477857       -7.9573726996
 H        -3.6240334011        6.2304958572       -6.6983858900
 H        -4.0581315086        6.6352235253       -8.2676970567
 H        -6.0204057709        5.2006089262       -9.0106279234
 H        -6.0386699356        3.4191113006       -8.8802044705
 H        -6.4054927747        4.5563261010       -7.5832618350
 H        -2.6266764102        2.8557097585       -4.1222724440
 H        -2.6396564705        1.3375911599       -5.1117714286
 H         0.0800963990       -1.0337001020       -4.5155193646
 H        -0.5164585369       -2.0932814664       -3.1698641864
 H         1.4753736196        0.9567745607       -2.1267146631
 H         1.6750954009        1.6544381292       -3.9630482795
 H         1.5366825526        0.1036113452       -3.6569864204
 H        -0.4372954127        2.3957055137       -1.2046220395
 H        -0.2327981808        3.4992819988       -2.3194617565
 H        -1.7920901277        2.7198573143       -2.3898534381
 H        -1.4550584152       -2.8313078923       -5.0425501043
 H        -1.8948830674       -1.1325461913       -5.6412199605
 H        -7.6438256426       -1.0743035751       -4.8697212601
 H        -7.3089296993       -2.7117375162       -4.0734047669
 H        -4.6242578693       -0.9261840843       -6.5578940634
 H        -5.4084174013       -2.5582915898       -6.6809533252
 H        -3.5610192450       -2.4246596108       -6.4637765384
 H        -5.5485050774       -4.2782232383       -4.8439585716
 H        -3.8686330456       -4.3212978968       -4.9348625237
 H        -4.6183695479       -4.0919695021       -3.3526121636
 H        -8.1201302988        0.0168153509       -2.8788380760
 H        -8.8173587785       -1.5062379554       -2.6980311840
 H        -7.1409234393       -0.4049516083        2.4034189860
 H        -7.3114642765       -1.7914516557        1.5579174396
 H        -7.1337600667        1.7649897210       -2.2549442749
 H        -5.6618733712        1.6487303674       -1.3590382837
 H        -6.9914495627        2.3289411040       -0.5984659853
 H        -9.3764426176        0.2222989162       -0.6206278001
 H        -8.6497053731       -0.3836901238        0.9131728303
 H        -8.4251758794        1.4533691801        0.4735878273
 H        -5.6793343200       -1.7400400747        3.8307745574
 H        -4.8495336824       -0.6502218105        2.7947734026
 H        -1.2442668808       -4.1021191267        4.0779711667
 H        -1.3680981482       -2.5197439446        3.4487122238
 H        -5.3575226810       -5.0330719956        4.3060700408
 H        -5.5309203168       -5.0812901970        2.4472386077
 H        -6.3248377286       -3.9100882771        3.3099784607
 H        -3.6877634068       -5.1641517316        1.4395539588
 H        -2.1927762366       -4.2875722128        1.9446270755
 H        -2.6825523747       -5.6084462062        2.8647179489
 H        -0.9640035117       -1.2841384259        5.2749272289
 H        -1.8139875050       -2.3201014915        6.4045119062
 H         4.1740612034       -2.3499869586        6.4931819483
 H         2.9443003232       -3.2778421235        5.5258089771
 H         0.0205146580        0.1333511532        6.7909990340
 H         1.3400056822        0.0731244891        7.8798536042
 H        -0.1252567723       -0.6299206636        8.2286634472
 H         2.7959854045       -2.2257977367        8.4022588999
 H         1.2137920981       -2.9475046572        8.8596804823
 H         2.2023522196       -3.7357755755        7.7563025293
 H         3.4754829178       -1.4280757362        3.5788516674
 H         4.5950948428       -2.8059628387        3.8589955988
 H         8.4095921623       -0.0460806751        4.1889732703
 H         8.3487982028        0.2249779327        2.3711533893
 H         6.5580812554       -0.0453251519        1.4799278110
 H         5.0299942875        0.5163002840        1.3325612006
 H         5.4428111864       -1.2565163560        1.7840239321
 H         3.7176753207        0.6985899508        4.3302264454
 H         4.5826973089        2.2022821960        4.1612612805
 H         3.7592576330        1.5711787719        2.5844542886
 H         9.1226050893        2.6333061881        2.9004985612
 H         9.6059363510        1.8306857215        4.5273434396
 H        10.8659707263        3.5428388832       -0.4116120767
 H        10.3220381947        1.9290057723        0.1727092469
 H         9.3837980457        3.2019848769        0.3550606975
 H        12.4446841678        2.0054315794        4.5336890525
 H        11.9939639576        3.6937304719        4.3940597628
 H        13.3294942669        3.2376967672        3.5939173126
 H        13.7134433576        2.4211500218        1.6429801305
 H        13.3833741360        0.7397874064        2.3172569444
 H        12.6961429549        1.4277457419        0.7625833242
 Na       -3.9980001580       -0.8179467204       -1.1715966830
