155

 C        -4.9479492930        4.4863270683      -10.7386221850
 C        -4.1826952183        4.0692947475       -9.4489478564
 C        -4.9552551791        4.1043447925       -8.0717668535
 C        -4.2460006954        3.0954741551       -7.1384823192
 C        -2.8516817775        3.3584266217       -6.4111417215
 C        -4.7515937489        5.5230939787       -7.5532474870
 C        -6.4262875796        3.6287209086       -8.2543409832
 O        -3.0174627001        3.6627666797       -9.4608664144
 O        -4.6447720972        1.9362943226       -7.0047319459
 C        -2.5621145772        2.2660141467       -5.4211983572
 C        -1.1481597399        2.4260216086       -4.7223893128
 C        -1.1199265553        2.1180088169       -3.0781779659
 C        -1.5790408393        0.5502081347       -2.9180454972
 C        -1.2019577457       -0.5454210206       -3.9476930749
 O        -0.1514113849        2.5566585022       -5.3550159562
 O        -2.2407112495        0.2301403063       -1.9337745441
 C         0.3159955865        2.0559543458       -2.4619375813
 C        -1.8597309004        3.0812152399       -2.1714499605
 C        -2.3381098315       -1.2341615838       -4.6632533789
 C        -3.2419606097       -2.1763556341       -3.8057588612
 C        -4.7785496570       -2.3371889185       -3.9949329752
 C        -5.4826120603       -1.2491097040       -3.2127451040
 C        -7.0054551802       -1.3795902274       -3.0367164052
 C        -4.8740953793       -2.3220553193       -5.5166046452
 C        -5.0941690998       -3.8008201694       -3.5326720603
 O        -2.7604461481       -2.7303712114       -2.8434511091
 O        -4.8720415052       -0.2996760498       -2.7937272181
 C        -7.4371911803       -0.3341926198       -1.9645583796
 C        -7.0480027131       -0.6404149141       -0.5325065219
 C        -6.8808226812        0.6929182300        0.5164507317
 C        -5.3958905237        0.5765743728        1.1141042742
 C        -5.1722069919        0.2670006848        2.6058571750
 O        -7.0886750065       -1.7149474701        0.0123765728
 O        -4.4110207075        0.6834825131        0.3754207653
 C        -6.9254521301        1.9502392713       -0.4003517420
 C        -8.1559598293        0.4653849179        1.3537475867
 C        -3.8763494229       -0.3277144145        2.9220313162
 C        -3.6092929325       -1.8005782115        2.4106739757
 C        -3.8496897067       -2.9671655422        3.5536789006
 C        -3.1361181604       -2.6816273625        4.9202227697
 C        -1.9393223325       -3.5308521478        5.4253132465
 C        -5.4123319856       -2.8559655037        3.7266064542
 C        -3.6144260799       -4.4281419070        3.0760651721
 O        -3.6242860429       -2.0505336393        1.2490949401
 O        -3.6855870703       -1.9608532968        5.6580932578
 C        -1.0770513153       -2.8933488335        6.5294790979
 C         0.4187565183       -3.4423592186        6.4522774638
 C         1.6435141711       -2.3752222375        6.8144375481
 C         2.0950538256       -1.9894178868        5.3264363959
 C         3.6532943333       -1.9083322492        5.1470100393
 O         0.5575629131       -4.5936918250        6.0685619113
 O         1.2468252786       -1.6928762378        4.4366390148
 C         1.1557933993       -1.0783511334        7.5351654757
 C         2.5847199365       -3.2417213207        7.6516746904
 C         4.2036518380       -1.6751829225        3.6795321293
 C         5.1369473000       -0.4241696384        3.6285652501
 C         5.6830755703       -0.0455247322        2.2525132626
 C         7.0040583273        0.8146891781        2.5393620822
 C         8.1173986993        0.0218685986        3.3148651701
 C         5.7899992094       -1.2065494920        1.2444367530
 C         4.6103934465        1.0289856003        1.6820177759
 O         5.4715162551        0.2822392209        4.6339658808
 O         7.1490416544        2.0209980533        2.4656418665
 C         9.6294055553        0.5592382048        3.2392402449
 C        10.4472880687        0.5968457594        1.9257386649
 C        11.8682952540        1.2790053943        1.9315852728
 C        12.0050785984        2.8109094336        1.6397501203
 C        11.6260057332        3.2117524004        0.2432843589
 O         9.7492574241        0.5680540263        0.8924315627
 O        12.4636936627        3.4521189132        2.4827330157
 C        12.5807926736        1.0212699786        3.2591683101
 C        12.7298778210        0.5143715600        0.8621732754
 H        -5.4276598249        3.5812579991      -11.1724943314
 H        -5.9076323927        5.1433931913      -10.6051176735
 H        -4.2411443647        4.8416303025      -11.4550077254
 H        -2.1229823740        3.5645375875       -7.2070148558
 H        -3.0433597812        4.4243844434       -5.9208862185
 H        -5.1681733173        6.2747437631       -8.1791168917
 H        -3.6453811737        5.7462301591       -7.8601113098
 H        -5.0917605517        5.6960058745       -6.5217305895
 H        -6.9531332420        4.2010953030       -9.0020957187
 H        -6.4263658024        2.5363095461       -8.3701736728
 H        -7.0540481043        3.8392448612       -7.3724098934
 H        -3.3378102420        2.0855833503       -4.6770264399
 H        -2.6458697007        1.3353012195       -5.9013127800
 H        -0.6153628221       -0.1605075993       -4.7824031944
 H        -0.5759379547       -1.3221394128       -3.5240898929
 H         0.0691757783        2.2927546595       -1.3553075354
 H         1.0612483418        2.7472368345       -2.7708309326
 H         0.9852480233        1.2356556108       -2.7206659490
 H        -2.1157085657        2.6436940370       -1.2096538802
 H        -1.3345410053        4.0217426580       -2.0937713469
 H        -2.8021985377        3.3844886477       -2.7801871917
 H        -1.6921826388       -1.9254082998       -5.2858530359
 H        -2.8916313020       -0.7359214304       -5.4102647115
 H        -7.5219099260       -1.3501376001       -4.0361584435
 H        -7.1296108720       -2.4621890826       -2.7858355556
 H        -4.7323084367       -1.2981285910       -6.0600181716
 H        -5.8730926703       -2.5171401048       -5.7338629803
 H        -4.2742695270       -3.1120201930       -5.9920200416
 H        -6.0404389014       -4.2238008346       -3.7691670462
 H        -4.5474772383       -4.4042898349       -4.1524956458
 H        -4.9048394101       -3.9440953142       -2.4963160707
 H        -7.0158466090        0.6202717158       -2.2558727954
 H        -8.4721416817       -0.1597112602       -1.8991047913
 H        -5.1202334849        1.2347746653        3.1198298407
 H        -5.9255852813       -0.4722672277        2.9663152693
 H        -7.8636860245        2.2998270683       -0.8181348963
 H        -6.1875216758        1.8310239254       -1.1428781797
 H        -6.6796873601        2.8724863968        0.1473612693
 H        -9.0195697284        0.5524281990        0.7257576778
 H        -8.2693618421       -0.4799569894        1.8727401867
 H        -8.3821430986        1.2948328834        2.0634354917
 H        -3.6227528518       -0.1107053736        3.9562481274
 H        -3.1728659164        0.0536303920        2.2905134520
 H        -2.4931629457       -4.4853647525        5.6672034705
 H        -1.2964364625       -3.6258802982        4.5020018423
 H        -5.7155556656       -3.9150519495        3.9611258614
 H        -5.9103650711       -2.7521574252        2.7955834570
 H        -5.6580713433       -2.2254609952        4.5704041151
 H        -4.3115789328       -4.7158862206        2.2522909061
 H        -2.6305802298       -4.7466224357        2.8671974209
 H        -3.8936525891       -5.1266300449        3.8498783298
 H        -1.0915694591       -1.8926886099        6.4410746099
 H        -1.3822920192       -3.1302324855        7.5920025243
 H         3.9707828317       -1.0374729277        5.9063307424
 H         4.1851751992       -2.8505652523        5.4229592608
 H         0.4526567853       -0.5589383931        6.7772259807
 H         1.8510607052       -0.2802232467        7.7591340236
 H         0.6286442478       -1.3868263155        8.4159854600
 H         3.5363244283       -2.8297320673        7.9433228809
 H         2.0251627809       -3.6091604773        8.5515544527
 H         2.7390479893       -4.1707553278        7.1320633656
 H         3.5019120848       -1.4962298916        2.8230453807
 H         4.7456045323       -2.5546425378        3.3308517639
 H         7.6350912924       -0.0139589658        4.3316044382
 H         8.2149915149       -1.0484429384        3.0637847936
 H         6.3826099872       -2.1007027792        1.4998536852
 H         6.4133070820       -0.8776024828        0.4464130571
 H         4.8837288925       -1.7424936055        1.0921532104
 H         3.6549184317        0.4912036193        1.6784534096
 H         4.3589843869        1.7694383108        2.3755693657
 H         5.0930393631        1.2579400356        0.6926238024
 H         9.7308585275        1.6427223554        3.3224092099
 H        10.2362163102        0.3583656207        4.0832890330
 H        11.6147166301        4.2651124229        0.0358111716
 H        12.2281630536        2.8102963196       -0.4990087370
 H        10.7565676021        2.6331749271       -0.0677034851
 H        12.2464407133        1.6674385989        4.1285525803
 H        13.6548596162        1.0305440808        3.1728511564
 H        12.4347853465       -0.0020980990        3.4372293421
 H        13.3490703202        1.1447487112        0.3179411200
 H        13.2813302016       -0.3519957247        1.2988088653
 H        12.0258790104        0.1416793392        0.1642306974
 Na       -3.3211043299       -1.4488995542       -1.0278461701
