155

 C        -5.2484751396        4.0468758231      -10.4308919504
 C        -4.5222378956        4.0287238203       -9.0599847286
 C        -5.3768237882        3.6462048088       -7.7915176338
 C        -4.3507451447        2.6752872367       -7.0039527189
 C        -2.9983713065        3.1346344077       -6.4461354209
 C        -5.4872524594        4.8644796402       -6.8630292558
 C        -6.6823587085        2.9861983194       -8.2635665501
 O        -3.3698055055        4.3160530269       -8.9911343417
 O        -4.7837217418        1.5250457710       -6.6851580357
 C        -1.9243789199        2.1342721671       -6.0700187183
 C        -1.0525350815        2.5909837591       -4.9500052444
 C        -1.3049959280        2.3437889760       -3.3848122940
 C        -1.5173487549        0.9047439170       -2.7838497108
 C        -1.5673516009       -0.3554971945       -3.5673432203
 O         0.0354399128        3.1273860084       -5.2193085443
 O        -1.5484805371        0.7788220677       -1.5456396427
 C        -0.0188773262        2.8142507852       -2.5514752420
 C        -2.4838809526        3.2404442959       -2.7848212748
 C        -2.8363002442       -1.1017929145       -3.9010365431
 C        -3.5343338816       -2.1916932213       -3.0408167637
 C        -4.9896582777       -2.4283423484       -3.3043982533
 C        -5.7426678125       -1.1160053398       -2.7317062838
 C        -7.3406086909       -0.9003857281       -2.7161051789
 C        -5.3384155984       -2.8957735616       -4.7393598627
 C        -5.3056841423       -3.5362257190       -2.2281556802
 O        -2.8337688983       -2.5776205339       -2.0974408553
 O        -5.1087442232       -0.2548522144       -2.1025077677
 C        -8.0655375247       -0.0413223311       -1.6999833928
 C        -7.6105940726       -0.3878906854       -0.2228475540
 C        -6.9120634864        0.6388348565        0.8267657973
 C        -5.3154044888        0.6424619639        0.8719845978
 C        -4.6454440889        0.5897297678        2.3377880502
 O        -7.8615469546       -1.4998759499        0.0795391168
 O        -4.5808658753        0.6542930134       -0.0939474108
 C        -7.1799860125        2.0615673637        0.1338627685
 C        -7.5220728026        0.5944962832        2.2508503464
 C        -3.2676119398       -0.1673062582        2.3519764529
 C        -3.2898354104       -1.7055280549        2.2002992879
 C        -3.8192188300       -2.5971899076        3.3906271194
 C        -3.0198018987       -2.2900022729        4.7242583453
 C        -1.9964351610       -3.1722621022        5.4484377281
 C        -5.3692834782       -2.4014828395        3.5744008855
 C        -3.7240285215       -4.1248649176        3.1259552536
 O        -3.0911029042       -2.2230822417        1.1234295153
 O        -3.1535181756       -1.1447585753        5.2001517967
 C        -0.7478351150       -2.4100959005        5.8255238596
 C         0.4157472657       -3.3304347524        6.2424922010
 C         1.9514474780       -2.8463955027        6.3883678086
 C         2.3114220696       -2.0946641141        5.0409839976
 C         3.7488836319       -1.5445619643        4.7112308669
 O         0.2190460807       -4.4360694368        6.6622823543
 O         1.4136021297       -2.0196405174        4.2573525555
 C         1.9000215196       -1.6480554482        7.4584469378
 C         2.7478800534       -4.0387852329        6.8633782552
 C         3.9745055556       -1.1566749299        3.2930745902
 C         5.1891652645       -0.1713960009        3.2985831030
 C         5.7622438839        0.0536011989        1.8879581780
 C         7.1665672529        0.8407186098        2.0363266608
 C         8.1752628449        0.0869405234        2.7610432853
 C         6.1679314139       -1.2723077834        1.1954639279
 C         4.8038657155        0.9585948312        1.1594349266
 O         5.6834250140        0.1056655117        4.3401343596
 O         7.2742362258        1.9472617592        1.5028832677
 C         9.6070460821        0.6191500765        2.6988514313
 C        10.3714268221        0.3192677885        1.3799065080
 C        11.9643689988        0.4901616336        1.3891042170
 C        12.0392877690        2.0738617643        1.6320810861
 C        12.4649334204        2.9100140172        0.5453878949
 O         9.8458271447       -0.1484817421        0.3882738368
 O        11.8552281646        2.5249694343        2.7204018023
 C        12.5439641828       -0.0852868875        2.8198322577
 C        12.6441106989       -0.1458562674        0.0781238162
 H        -5.6750276321        3.0326440674      -10.6561168796
 H        -6.0570402349        4.7993658186      -10.4833056190
 H        -4.5148179388        4.2666992262      -11.3182297734
 H        -2.5008787275        3.8390042399       -7.1832059059
 H        -3.3697872305        3.6727766475       -5.5058593891
 H        -6.5302905545        5.2741672964       -7.1376915210
 H        -4.6987105653        5.5098865726       -7.0355885169
 H        -5.2521197738        4.6106850020       -5.7775756847
 H        -7.1649883670        3.8096600842       -8.9385093999
 H        -6.3750537252        2.2366900299       -9.0807204173
 H        -7.2024048383        2.5038316844       -7.4696874026
 H        -2.3138299161        1.2090277675       -5.6834303697
 H        -1.2472610000        1.9906702994       -6.8211031264
 H        -0.9298623605       -0.2481307242       -4.4729558053
 H        -0.9659440646       -1.0081792052       -2.9852648824
 H        -0.2747347648        3.0066664123       -1.4914590863
 H         0.3791107173        3.7530712169       -2.9960057791
 H         0.5468800199        2.0028956988       -2.2895248170
 H        -3.1384633776        3.2419258488       -3.6048237448
 H        -2.8285967730        2.6656631770       -1.9178253036
 H        -2.1510695590        4.2643495673       -2.6673471087
 H        -2.6924483050       -1.4801683292       -4.8952945918
 H        -3.6948342501       -0.3174792731       -3.9492267896
 H        -7.4196982496       -0.4425879126       -3.7417032538
 H        -7.7105359783       -1.9444364694       -2.7152504694
 H        -5.3055747096       -2.0881182156       -5.3721742381
 H        -6.3863004376       -3.1837676627       -4.5935562040
 H        -4.8093262855       -3.7295408162       -5.2385885025
 H        -6.3894371615       -3.5703676122       -2.1551067019
 H        -4.7960870685       -4.5532219218       -2.5185336150
 H        -4.8333542241       -3.3495949951       -1.2660617871
 H        -7.9955225270        1.0359666598       -1.9834923943
 H        -9.1158918891       -0.2495818367       -1.7933282830
 H        -4.3716247369        1.6000379248        2.5253385231
 H        -5.1137415785        0.1667642645        3.1951501068
 H        -8.0228062818        2.1137245041       -0.4899825149
 H        -6.2753626690        2.5362511842       -0.4303937606
 H        -7.1583483836        2.6691615617        1.0338780362
 H        -8.5783679418        0.5972546052        2.2888490938
 H        -7.3476721728       -0.4133793347        2.7035163505
 H        -7.1117330407        1.2251930261        3.0089773288
 H        -2.8883966901        0.0749016349        3.4216090914
 H        -2.6048299881        0.3024683115        1.5762139621
 H        -2.5099687359       -3.5812523501        6.2704426831
 H        -1.8547963995       -4.0057825059        4.6974242211
 H        -5.8162728064       -3.3616654359        3.2369235092
 H        -5.6941225099       -1.5760162916        2.9633866824
 H        -5.7847390665       -2.2872976137        4.6099268380
 H        -4.2176316939       -4.4012701819        2.1922574129
 H        -2.7351750552       -4.5376659420        2.9563883924
 H        -4.2435562454       -4.6288284607        3.9590764965
 H        -0.3742010966       -2.0243876857        4.9036898337
 H        -0.9278692557       -1.6193778200        6.4982220934
 H         4.0553080300       -0.8696713523        5.4089859359
 H         4.4780132602       -2.3190600729        4.8066543577
 H         1.0971224596       -1.0297385152        7.1235439843
 H         2.9382837071       -1.2846782431        7.5472423850
 H         1.6784909030       -2.1036421932        8.4266288377
 H         3.7915876225       -3.8510840834        6.7515530292
 H         2.5081897963       -4.1934024977        7.9225728823
 H         2.5316854495       -4.8782887184        6.1974953242
 H         3.0714518424       -0.6709966743        2.8956102029
 H         4.2624961810       -1.9108198630        2.5015715640
 H         7.9052238090        0.4081439023        3.7595406715
 H         8.1030011096       -0.9582767599        2.5865905126
 H         7.1569312758       -1.5234087469        1.5118712024
 H         6.1469684348       -1.1553777795        0.1711557618
 H         5.3703436211       -2.0512994343        1.1068494943
 H         3.9621301496        0.3629502643        1.1833681327
 H         4.8631553108        1.8918763209        1.7024836061
 H         5.0299922778        1.1347072140        0.2148801343
 H         9.6206274174        1.7140415961        2.6983834841
 H        10.0942064570        0.2431940016        3.6272805364
 H        12.2425489563        2.7163816088       -0.5353064490
 H        12.1972368437        3.9926849014        0.8459426761
 H        13.5733492301        2.7901576900        0.4387947028
 H        13.3792180919       -0.7746625334        2.7343665157
 H        11.7286635187       -0.7397257465        3.2642512366
 H        12.7921374783        0.8080556090        3.4240928441
 H        13.7233082991       -0.4065642467        0.2868834838
 H        12.0229168135       -1.0425125506       -0.1766586729
 H        12.4657967836        0.4931088857       -0.7894097596
 Na       -2.5517094509       -0.7269725816       -0.3803479650
