155

 C        -5.2745792809        3.9162667771      -10.5304207752
 C        -4.5878345030        4.1496077663       -9.1629494057
 C        -5.3285407741        3.5406527343       -7.7352292116
 C        -4.4310342211        2.5535163172       -6.9186341693
 C        -3.1160661422        3.1710837215       -6.3998201900
 C        -5.7261514058        4.8312673998       -6.8790881220
 C        -6.6963079843        2.7338986639       -7.9608115509
 O        -3.4733143053        4.6892004314       -9.0738242534
 O        -4.7502711240        1.4610409291       -6.6598494757
 C        -2.1442944478        1.9983925950       -5.9723543448
 C        -1.0612981284        2.6024776663       -4.9392899073
 C        -1.1753404051        2.3060928811       -3.3594217827
 C        -1.4505915851        0.9467682747       -2.7569893611
 C        -1.4298895830       -0.4079330803       -3.4264547660
 O        -0.1180587961        3.2162944578       -5.3445800737
 O        -1.6130275145        0.9054466734       -1.5392101652
 C         0.0158478674        2.9484702728       -2.6799604794
 C        -2.5093894415        3.1663711598       -3.1568135286
 C        -3.0537861084       -0.8744693200       -3.7929745816
 C        -3.5626565042       -1.8844478312       -2.8184693753
 C        -5.0923554062       -2.5728153172       -2.9103752364
 C        -5.7817783560       -1.1695134390       -2.5558227223
 C        -7.3001201512       -0.9944767387       -2.8046063441
 C        -5.5216452338       -2.8308433186       -4.3284114446
 C        -5.3585079447       -3.8249865332       -2.0129840542
 O        -2.8110306093       -2.3115640085       -1.9745758770
 O        -5.1039088836       -0.2254241954       -2.2633847068
 C        -7.6168264939       -0.0067895866       -1.6290253055
 C        -7.4315175356       -0.3300144028       -0.1874764460
 C        -6.9596869123        0.8319855964        0.8348241507
 C        -5.2720038039        0.7287280092        0.9208806661
 C        -4.5376253020        0.8553806549        2.2501199423
 O        -7.8114266712       -1.3168032148        0.3955732459
 O        -4.6499959107        0.7315660268       -0.1432963228
 C        -7.1128972506        2.2824199442        0.4905704376
 C        -7.6172308523        0.4890943702        2.1028146434
 C        -3.3233297638       -0.2289871294        2.5214972266
 C        -3.4782602715       -1.7163384286        2.3094124673
 C        -3.8668330320       -2.6666364563        3.4396619035
 C        -3.1324426657       -2.2227624386        4.7505157373
 C        -2.0980070255       -3.2601874401        5.4591880722
 C        -5.4159418345       -2.4081224206        3.8968414770
 C        -3.6868441236       -4.0617102913        2.8541559085
 O        -3.1838910487       -2.1454353306        1.1894772154
 O        -3.2878398160       -1.1253759589        5.1516564511
 C        -0.7956110779       -2.4974148884        5.9342504372
 C         0.3731755457       -3.4123929638        6.5592499444
 C         1.8721928501       -2.8252496469        6.2262940122
 C         2.2377608317       -2.1073566970        4.8875993145
 C         3.7295232353       -1.5456264641        4.8457467257
 O         0.2329000318       -4.4649839084        7.1120034985
 O         1.5171130433       -2.1767664427        3.8596867001
 C         2.2166530198       -1.8117483737        7.5018252068
 C         3.0414745868       -3.9578507942        6.3944457626
 C         3.9319704268       -1.0041346950        3.4085229062
 C         5.2966045155       -0.3189049371        3.1382045648
 C         5.8279994648        0.0548708892        1.7629154739
 C         7.1149261468        0.9667566074        1.9442751736
 C         8.2982630836        0.3222434495        2.8467059705
 C         6.0696325285       -1.2585517323        0.7747054219
 C         4.6316702124        0.7616476314        0.9820340274
 O         5.9384237537        0.0925978316        4.1404235056
 O         7.2970345627        2.0710461122        1.5709690228
 C         9.6112652278        0.8848586948        2.2516444159
 C        10.4430675882        0.0549266202        1.2936314888
 C        12.1188622372        0.3331208163        1.3398609448
 C        12.2049784082        1.8922945254        1.6780450649
 C        12.6483966606        2.7830131240        0.5268570257
 O         9.9688465094       -0.7322015973        0.4964584699
 O        11.9797797242        2.4819819528        2.7701532815
 C        12.5495013661       -0.6190660624        2.4521221225
 C        12.8075295715       -0.0074561764        0.0010336433
 H        -4.7837704930        3.2016602230      -11.1301902960
 H        -6.3722350122        3.7057894854      -10.3808865938
 H        -5.3128115928        4.8939845357      -11.0105641292
 H        -2.7294843358        3.8420115451       -7.1252225631
 H        -3.4456782444        3.6662569532       -5.4988468366
 H        -6.4496529644        5.3398755749       -7.3932117229
 H        -4.7371261977        5.4230791871       -6.7050131986
 H        -5.9998177911        4.4667270612       -5.8988264835
 H        -7.3758374781        3.2146230084       -8.5271568655
 H        -6.4793571549        1.8578980824       -8.4746398728
 H        -6.7899766749        2.3833820011       -6.9248669248
 H        -2.7264553952        1.1755252494       -5.5247228820
 H        -1.4505160723        1.7409816861       -6.8522973570
 H        -0.9166720140       -0.3572699283       -4.3663030895
 H        -0.8650957127       -1.1020054367       -2.7192099940
 H        -0.1124340352        2.9464732089       -1.5564530518
 H        -0.0375028998        3.9832504822       -2.9031192024
 H         0.8453113365        2.1486771012       -2.7144921182
 H        -3.4146063063        2.5211159229       -3.2168001940
 H        -2.2827553418        3.6970910669       -2.2695758869
 H        -2.5205291302        3.8424574005       -4.0424392970
 H        -2.8942211330       -1.5727057078       -4.6900653840
 H        -3.6029044306       -0.0590632644       -4.0996231895
 H        -7.4444575030       -0.4521708768       -3.7452872533
 H        -7.7274289470       -2.0002996330       -2.7196234977
 H        -5.0681773595       -1.9704453730       -5.0352358567
 H        -6.5554065615       -3.0710924199       -4.4113449390
 H        -5.0325896401       -3.7269270445       -4.6784545370
 H        -6.3251538272       -4.1908418694       -2.2631550762
 H        -4.6621390517       -4.5438586931       -2.2545053554
 H        -5.2732601105       -3.5868976127       -0.9464961342
 H        -7.1726423013        0.9407289775       -1.8021974333
 H        -8.7036610097        0.1320516595       -1.7487014685
 H        -3.8831615586        1.7869494241        2.4683059383
 H        -5.2950026317        0.7652213064        3.0897375062
 H        -8.2374518292        2.4470580907        0.5521984765
 H        -6.9366377762        2.4247798833       -0.5135308667
 H        -6.5114672545        2.9228686668        1.1722169444
 H        -8.6283897615        0.8293946374        2.1106728374
 H        -7.6276849113       -0.4720131101        2.5155840982
 H        -7.2273904025        1.0818729884        2.9177330869
 H        -2.9481534703        0.0864466558        3.4656149289
 H        -2.6201762107        0.1601367378        1.8436459850
 H        -2.7432166145       -3.8401330884        6.2296804621
 H        -1.8929701592       -3.9815528688        4.7008778786
 H        -6.2174650009       -2.9198237564        3.3432259589
 H        -5.5006912520       -1.3297487083        4.0012096896
 H        -5.5615856616       -2.9338843028        4.8386398580
 H        -4.3471630509       -4.1899191135        1.9688708748
 H        -2.7087352045       -4.0426982076        2.3850852460
 H        -3.8198183768       -4.9083505667        3.4977686799
 H        -0.3856450623       -2.0501090133        5.0094364769
 H        -1.0353701264       -1.6733736964        6.7269554565
 H         3.8634467349       -0.7957310598        5.7735519549
 H         4.4841098392       -2.3995540091        5.0637264914
 H         1.3873402359       -1.0374029879        7.5648431774
 H         3.2171997221       -1.4651536511        7.3542462299
 H         2.3151260032       -2.4737104126        8.3523113620
 H         3.9921477922       -3.4556850917        6.5924078105
 H         2.7314774533       -4.5348183748        7.2733817714
 H         3.0826279223       -4.5363788441        5.4871201451
 H         3.0896061770       -0.2796719729        3.2455670150
 H         3.8727237732       -1.8045070463        2.6858988953
 H         8.2834953912        0.7117354645        3.8753148548
 H         8.2626752679       -0.7371338562        2.6114833138
 H         6.7938075893       -1.9948582081        1.1493418815
 H         6.4242858786       -0.9154025176       -0.2467975471
 H         5.1278056769       -1.5496644849        0.4368280605
 H         3.9532116363       -0.0400906860        0.5824347653
 H         4.3517951737        1.6559085375        1.5207766538
 H         5.2061649194        1.2870881790        0.1179420480
 H         9.3832131811        1.9576234935        1.9385736171
 H        10.2944258736        0.8398611345        3.0900466836
 H        11.9091605381        3.3579387616       -0.0046672164
 H        13.2269553721        3.5098883051        0.9049682675
 H        13.1625153901        2.3239745366       -0.3379648583
 H        12.4885113518       -1.6710601750        2.0578410312
 H        11.8096252128       -0.7810939283        3.1629341045
 H        13.5246281947       -0.3870330468        2.8249544751
 H        13.7324275309        0.4232553693       -0.0695800133
 H        12.8848271922       -1.0831093093       -0.1104057643
 H        12.0452372334        0.1880519210       -0.6796726879
 Na       -2.8050140838       -0.5584646958       -0.5245094608
