155

 C        -4.8650677333        3.2132628081       -9.9402547540
 C        -5.5630181008        3.9039202199       -8.7613714822
 C        -6.4644488255        3.0567630036       -7.8278529243
 C        -5.5470879532        2.5018565606       -6.7099487275
 C        -4.4103953508        3.4305521388       -6.2476315874
 C        -7.4246316771        4.0392876857       -7.1498117113
 C        -7.2484514555        1.9250677409       -8.5060247536
 O        -5.3360535563        5.0209766161       -8.3290111358
 O        -5.5251633688        1.3165952658       -6.3060754236
 C        -3.6498328184        2.7757748270       -5.0019045739
 C        -2.2503836303        2.0774364683       -5.2891924794
 C        -1.2910547695        2.2294111089       -3.9950672718
 C        -1.9172865667        1.5173185761       -2.7310092069
 C        -1.4420350188        0.0799375509       -2.4470028552
 O        -1.8601045597        1.3960316796       -6.1557255495
 O        -2.4520713248        2.2053069822       -1.8563055065
 C         0.0838048602        1.6760670414       -4.4046960259
 C        -1.1004514649        3.8127895344       -3.7858415022
 C        -2.3063718639       -1.1879154209       -2.6457007106
 C        -3.3467280711       -1.4564285569       -1.5042471886
 C        -4.7645642365       -1.9430375835       -1.8553724460
 C        -5.8137725920       -0.8603706108       -1.3492216951
 C        -7.1653433699       -0.6265496031       -1.8856178156
 C        -5.0943994511       -2.1824378919       -3.2950898615
 C        -5.1512311906       -3.1712146812       -0.9684377443
 O        -3.1513109799       -1.2380421515       -0.3198026464
 O        -5.3285225927       -0.2160172875       -0.3987260275
 C        -8.1248319398       -0.3923759594       -0.6377369362
 C        -7.5195955621        0.0368955554        0.7383632249
 C        -7.1988801282        1.5164717803        1.1979269349
 C        -5.9043472107        1.5449004405        1.9943011287
 C        -5.9520258930        0.9217540828        3.3887728445
 O        -7.6501821888       -0.7594458030        1.6558234954
 O        -4.9035879033        2.1272661250        1.6419506147
 C        -7.0573469147        2.4570558575       -0.1049343399
 C        -8.3895518527        2.0847653701        2.0948782005
 C        -4.5694587075        0.8117156431        4.0073091847
 C        -3.6517350548       -0.2688794331        3.3461592539
 C        -3.5603008955       -1.7736373277        3.8496012708
 C        -2.5241952908       -1.8090092969        5.1702837975
 C        -1.1119695648       -2.1679692335        4.8400343733
 C        -4.9248724274       -2.4111055144        4.2311593060
 C        -3.1435234393       -2.6732428903        2.5640569285
 O        -2.8316657168        0.0534008190        2.4975128486
 O        -2.9522794386       -1.5395540784        6.2833942879
 C        -0.1227115841       -2.4372606200        5.9871385848
 C         0.9742477016       -3.5520818849        5.6268930613
 C         2.6541003904       -3.2832563888        5.4557385873
 C         2.8279633499       -2.2263664499        4.1889033876
 C         4.2028129728       -1.6154735126        4.0184889537
 O         0.5676870280       -4.6430783973        5.4582358716
 O         1.8603202277       -2.0630551743        3.4560743401
 C         3.2063168307       -2.6670351816        6.7779076661
 C         3.3240769816       -4.5700359442        5.1910648023
 C         4.5854197580       -1.5610680085        2.5113139920
 C         5.7845318578       -0.6704591105        2.2327653690
 C         5.9603675630       -0.2354905679        0.8011677477
 C         7.4183645759        0.2118009504        0.2352785761
 C         8.6121935499       -0.5267633240        0.7413843449
 C         5.3230684611       -1.3774505681       -0.2731004501
 C         5.1600246281        1.0759363182        0.8627645739
 O         6.4497102592       -0.2591522064        3.2191929351
 O         7.4163485351        1.1174473134       -0.5562933941
 C        10.0992189094        0.0918114935        0.5892669027
 C        11.0778892769       -0.9642344238        0.9624105483
 C        12.5807129442       -0.7603789687        0.4580763512
 C        13.3918392620        0.3858019936        1.2047667934
 C        13.2512979441        1.7877333845        0.3546985512
 O        10.7392567509       -2.0418948512        1.5002025320
 O        14.0385706258        0.2156938368        2.1873339775
 C        13.2964982042       -2.1951335756        0.6630056834
 C        12.5096534000       -0.4010678304       -1.0400381127
 H        -3.8696466330        3.4003180907       -9.9235496181
 H        -5.0979679595        2.2122655345      -10.1288020785
 H        -5.2692454805        3.7938261956      -10.7876379758
 H        -3.5167374147        3.8208879343       -6.8650949860
 H        -4.9610836184        4.3207125536       -6.0293169572
 H        -8.1326731014        4.3601326800       -7.8271238631
 H        -6.8774568108        4.9359165584       -6.8473158543
 H        -7.9663780941        3.6212982198       -6.3191208215
 H        -7.5749155032        2.4542577588       -9.3244275913
 H        -6.6800694509        1.1742819739       -8.9604055599
 H        -7.9972782382        1.5122208568       -7.8135900365
 H        -3.5264809399        3.4804817788       -4.1353211665
 H        -4.3802318979        1.9419405315       -4.6912904165
 H        -0.4246874286       -0.1544933243       -2.8817738596
 H        -1.3643044236        0.0476765235       -1.3816449007
 H         0.9629758580        1.6064435530       -3.7254763954
 H         0.4365050661        2.4765225465       -5.0800423507
 H         0.1175220594        0.6575091939       -4.6614513514
 H        -1.9427729404        4.3628280309       -3.3697724067
 H        -0.0841330655        3.9793695572       -3.3320330452
 H        -1.0104581203        4.0508548918       -4.8002641783
 H        -1.6017625581       -1.9297190097       -2.5481345493
 H        -2.9078719784       -1.5382511890       -3.5751334759
 H        -7.2821821490        0.1218783830       -2.6206491727
 H        -7.5011331142       -1.4974820791       -2.3926883380
 H        -5.0022670405       -1.2430407660       -3.8619754795
 H        -6.0311983358       -2.6397777993       -3.5039672900
 H        -4.3748936928       -2.8409385168       -3.6501088284
 H        -6.1461543608       -3.5376946697       -1.2149132861
 H        -4.5692429547       -3.9819434851       -1.2418389106
 H        -5.0921055673       -2.9120070448        0.0682256168
 H        -8.9861517070        0.2773555773       -1.0295116896
 H        -8.7106106292       -1.3187934731       -0.4414888622
 H        -6.5847105242        1.6568943016        3.9013701760
 H        -6.3977486284       -0.0550191235        3.1963200632
 H        -8.0480492094        2.8737837104       -0.2791055341
 H        -6.6449666659        1.9100247835       -0.9332058582
 H        -6.5832134632        3.2754569466        0.3464926707
 H        -8.1648553159        3.1100621909        2.4603589020
 H        -9.2012485348        2.0440910710        1.4375290083
 H        -8.6207372612        1.3788818320        2.8412620951
 H        -4.8172542113        0.5770593585        5.0637895963
 H        -3.8091101725        1.7325078312        3.7809891988
 H        -1.2197017238       -2.9530324083        4.1018353245
 H        -0.8635261945       -1.2258403247        4.2638869209
 H        -5.8535639973       -1.9324868952        3.9494698260
 H        -4.9905124044       -2.4523970864        5.3389795304
 H        -5.0477121577       -3.3818238546        3.8013595875
 H        -3.7539688550       -2.4525844414        1.6872039296
 H        -2.0700615136       -2.4423480154        2.4624724414
 H        -3.1950227558       -3.7512023137        2.8104870914
 H         0.3100908730       -1.3926032251        6.1632892768
 H        -0.6577592155       -2.8125431970        6.8372467936
 H         4.3771704998       -0.6911543033        4.4179330401
 H         4.8769732017       -2.1853789823        4.6643399709
 H         3.0194303058       -1.6237080369        6.8988239932
 H         4.2897672369       -2.6489083997        6.9641067656
 H         2.6494292774       -3.1907333802        7.6452170387
 H         2.5510141962       -5.2793632866        4.9380240606
 H         4.1285900689       -4.5441574422        4.4559661790
 H         3.7774745301       -5.0179283670        6.0563658868
 H         3.6371524274       -1.1775072902        1.9756357406
 H         4.7123316215       -2.5223341671        1.9554579997
 H         8.5533691352       -0.9704978342        1.7626718753
 H         8.6244585129       -1.4613618113        0.2238151183
 H         6.0122419289       -2.2161235685       -0.3806183557
 H         5.4077232930       -0.9235756375       -1.3110156518
 H         4.2577283163       -1.6679205473       -0.0398822423
 H         4.0873703008        0.8452809688        1.2085626220
 H         5.4701869427        1.8834775614        1.6309508728
 H         5.0524155167        1.6441698267       -0.1544095817
 H        10.1220616049        0.5843908669       -0.4059456371
 H        10.2917126168        0.9412525169        1.1912913685
 H        13.4003151328        1.9852098080       -0.6173571008
 H        12.2301017015        1.8805872935        0.4429812034
 H        13.9390049186        2.4626065621        0.8940875686
 H        12.6863559872       -3.0610248357        0.6407280012
 H        13.7028975055       -2.3385592451        1.6997521721
 H        14.1670635592       -2.2163819167       -0.0299621881
 H        13.4747483174       -0.2316856402       -1.5403167756
 H        12.0447892456       -1.0879966900       -1.6576862275
 H        11.8911229598        0.5367969835       -1.0094551002
 Na       -3.0934917517        1.1343560753        0.3624056226
