155

 C        -4.6846963796        3.2065182546       -9.8034853554
 C        -5.5062743051        3.8134613323       -8.6037385622
 C        -6.5285579037        2.9616865267       -7.6959644339
 C        -5.5328586364        2.5179247953       -6.5078113847
 C        -4.4316318156        3.3869811769       -6.1471780873
 C        -7.7002223546        3.8675666979       -7.1417726720
 C        -7.2188106709        1.6443061323       -8.3093245039
 O        -5.3752241115        4.9988720202       -8.3870681072
 O        -5.8144478964        1.4781179909       -6.0246689086
 C        -3.7532897990        2.9547559277       -4.8205330968
 C        -2.5244455762        2.0890052285       -5.0231253948
 C        -1.2594745749        2.0938009149       -3.7544832404
 C        -1.7175091399        1.3391608373       -2.5511674277
 C        -1.3516294947       -0.0975281978       -2.3222152846
 O        -2.3934182773        1.3244456317       -5.9552918235
 O        -2.5371558306        1.8085989885       -1.7718518434
 C         0.0652144255        1.5601030212       -4.3711897317
 C        -1.2037205901        3.6022443127       -3.3304907402
 C        -2.4320672608       -0.9342884991       -2.9143785942
 C        -3.3364335388       -1.3041559955       -1.5713596224
 C        -4.7447580440       -1.8281482602       -1.7017757907
 C        -5.6943812179       -0.7773186536       -1.0474887702
 C        -7.1531819583       -0.5458746157       -1.6529152966
 C        -5.0289128605       -2.1889241854       -3.1219052727
 C        -4.9802524240       -3.1561128612       -0.9517206100
 O        -2.8465359783       -1.2561062347       -0.4434220147
 O        -5.2642064660       -0.0151187174       -0.2156814225
 C        -8.2320819418       -0.2778888579       -0.5842350567
 C        -7.7018851092        0.0752293448        0.8230721595
 C        -7.3192797581        1.5675988046        1.1572712255
 C        -5.9333489940        1.6876628376        1.9279599129
 C        -5.8502521742        1.1443027518        3.4120186266
 O        -7.7460006813       -0.6999626267        1.7601248808
 O        -4.9992579698        2.4282316328        1.5723802069
 C        -7.1703935273        2.4746317280       -0.0575177176
 C        -8.5962282444        2.1377017610        2.0304887502
 C        -4.4033102444        0.9022866068        4.0175872483
 C        -3.5846494201       -0.1575071648        3.3039602992
 C        -3.4718072686       -1.6472222125        3.6707099671
 C        -2.4783944442       -1.7559949622        4.9009855204
 C        -1.0699758061       -2.3948187181        4.6285547905
 C        -4.8418879233       -2.0702813206        4.2797506746
 C        -2.9047773833       -2.4520972871        2.4523723131
 O        -2.9370274139        0.2367749996        2.3193886363
 O        -2.8101943573       -1.3820626872        5.9937470829
 C        -0.0399980190       -2.4083558492        5.8221954140
 C         1.0040149327       -3.5385406842        5.5895694058
 C         2.5450306293       -3.1844246976        5.4515610168
 C         2.8184508812       -2.2208329443        4.2135690586
 C         4.3281175357       -1.7692470514        3.9858243652
 O         0.6243097870       -4.6694021769        5.3843038719
 O         1.9290391836       -1.8076470528        3.5337199467
 C         3.0612765148       -2.5964531594        6.7656161363
 C         3.3264319893       -4.5300690198        5.0024191192
 C         4.8181499727       -2.0021165114        2.5853911610
 C         5.8827461396       -0.8178143032        2.1779857051
 C         5.9067479498       -0.1661097020        0.6418489801
 C         7.4724321581        0.1910053072        0.3232198090
 C         8.6290014217       -0.4981761064        0.9745617991
 C         5.5870341658       -1.0340144889       -0.5401209494
 C         5.0253176452        1.1446258011        0.6182965313
 O         6.5799740908       -0.3807459960        3.0031724234
 O         7.6928585019        0.9604516716       -0.5962509120
 C         9.9836021330       -0.0279011590        0.4534857637
 C        11.0625229283       -1.0990791685        0.6155429309
 C        12.5599600614       -0.8793089247        0.2508697159
 C        13.3499510279        0.3317156876        1.1212246854
 C        13.4320893529        1.8062398123        0.6524671525
 O        10.7222763245       -2.0868235582        1.2288946502
 O        13.8964698714       -0.0470814576        2.1505236012
 C        13.3577796190       -2.0895670914        0.5775243641
 C        12.6944709579       -0.8729227682       -1.3858248196
 H        -3.7212828929        3.8549794412       -9.8884357594
 H        -4.3648939269        2.0982653737       -9.5246183096
 H        -5.2203710963        3.2122812788      -10.7776306999
 H        -3.7107492118        3.2256365269       -6.8955087641
 H        -4.6895901495        4.4871578418       -6.3031386913
 H        -8.6533506332        3.9002912604       -7.8156706099
 H        -7.3699684813        4.9819605083       -7.1214607483
 H        -8.1633694707        3.4938796942       -6.1959791295
 H        -7.1968145122        1.5136431979       -9.4732768619
 H        -6.5828407180        0.8099366810       -7.9252870123
 H        -8.1821929848        1.5006085972       -7.8658129354
 H        -3.4593826803        3.7774239685       -4.2197361880
 H        -4.5651180604        2.4497859319       -4.3512019825
 H        -0.4494642984       -0.3396234835       -2.8358580595
 H        -1.1116483047       -0.2014601569       -1.2026645440
 H         0.9930474176        1.3478378705       -3.8495043951
 H         0.5364000044        2.2943134217       -4.9967641892
 H        -0.1828133328        0.5833658961       -4.8646864064
 H        -2.0654153060        3.7621506885       -2.7078384230
 H        -0.2932424349        3.7647990794       -2.7635159460
 H        -1.2498061990        4.2303683193       -4.2406693869
 H        -2.1686054326       -1.8685613151       -3.5696950623
 H        -3.0183770193       -0.3676088871       -3.5162301990
 H        -7.1568217267        0.2036265943       -2.4777335000
 H        -7.6779653039       -1.3675054943       -2.1818785903
 H        -5.1656128850       -1.3255341610       -3.7470912759
 H        -6.0039331547       -2.8233362157       -3.1518796830
 H        -4.2615269894       -2.8599312798       -3.5058524639
 H        -6.0232128569       -3.5664358556       -1.0462342166
 H        -4.4411638776       -3.9302109327       -1.5443577846
 H        -4.7732745813       -3.0538094963        0.1452990512
 H        -8.9174813374        0.4284677949       -0.9517358469
 H        -8.8498703295       -1.1629451851       -0.5487951844
 H        -6.2901404611        2.0660686196        3.8504805468
 H        -6.4611706844        0.2353408637        3.4167283046
 H        -8.0136293721        2.3483445823       -0.6771404202
 H        -6.3050373072        1.9510435610       -0.5257675544
 H        -7.0695739842        3.5311795901        0.2316828668
 H        -8.1785936531        2.4907899375        2.9695655492
 H        -9.1768045671        2.9833819223        1.5155321305
 H        -9.2800506922        1.2690618914        2.0837406250
 H        -4.5276532523        0.5268797601        5.0691182547
 H        -3.8111462999        1.7347526219        4.0252799266
 H        -1.2647689376       -3.3703243839        4.1699037171
 H        -0.6404522935       -1.7833368798        3.8915955551
 H        -5.6961499986       -1.3942156040        4.0406218570
 H        -4.8039428737       -2.0479692714        5.3626320976
 H        -5.2008127415       -3.0920297004        3.9389010679
 H        -3.7319238018       -2.5887076481        1.7269165861
 H        -2.0119421086       -2.0355949389        2.0424207792
 H        -2.6661457278       -3.4137780809        2.8809888995
 H         0.4264782899       -1.5029592380        5.7116686170
 H        -0.3660188466       -2.5530238280        6.8879897911
 H         4.5485156287       -0.6727452414        4.2838575558
 H         5.0547029622       -2.1900685507        4.6738871082
 H         2.3316376689       -1.9677714106        7.2974042494
 H         3.9116260642       -1.9635667795        6.7897479912
 H         3.1467240886       -3.3838371558        7.4471427621
 H         2.9925672120       -4.9058757544        3.9889486011
 H         4.4108678221       -4.6143116697        5.2600978962
 H         2.8712911182       -5.4045542739        5.5945474185
 H         4.0293690210       -2.2317371143        1.9391248385
 H         5.4528033973       -2.8467003341        2.5584555966
 H         8.6812885763       -0.4093254530        2.0491265002
 H         8.6752796401       -1.6516479944        0.9054280788
 H         6.2615095925       -1.9099729047       -0.8006970012
 H         5.4224002478       -0.4050514362       -1.3663548049
 H         4.6764087618       -1.5928975491       -0.2137672067
 H         4.0237045561        0.9473053898        0.6334369112
 H         5.0686461297        1.6920093644        1.4494497912
 H         5.2762293523        1.8060819610       -0.1868205452
 H         9.6888330617        0.0689406100       -0.6134112777
 H        10.2487792625        1.0540443003        0.7020816560
 H        13.3411577454        1.6431342789       -0.5038064973
 H        12.5058078880        2.4588235530        0.8158960493
 H        14.4944363075        2.0617049015        0.7681448884
 H        12.6798025035       -2.9358767677        0.8082055874
 H        13.8185358956       -1.9753859199        1.5400480160
 H        14.1573969585       -2.3495909173       -0.0445959294
 H        13.7606980073       -0.7951438015       -1.7356911317
 H        12.3373782061       -1.9073064030       -1.7036415440
 H        12.2466249571       -0.0571373161       -1.9617713090
 Na       -3.3815568895        1.1151764431        0.3425049087
