155

 C        -4.7776353329        2.9699328540       -9.5822891173
 C        -5.5565606484        3.7354117082       -8.5522571633
 C        -6.4056160472        2.7825021204       -7.5799998741
 C        -5.6698738018        2.3620854833       -6.3319290025
 C        -4.3884063114        3.2933959673       -5.8365281891
 C        -7.6527249012        3.7781997795       -7.1113479581
 C        -6.8712054629        1.5461549720       -8.5034168606
 O        -5.6540955679        4.9494667442       -8.5807129834
 O        -6.1567165753        1.6157467500       -5.4195791580
 C        -3.8045266538        3.0973203041       -4.3548110855
 C        -2.7123496935        2.1630849639       -4.5580290033
 C        -1.3080522975        2.2315087336       -3.5418046171
 C        -1.6840874824        1.2643859368       -2.5102655361
 C        -1.2174491607       -0.2502460447       -2.6894426288
 O        -2.6768070880        1.2105393989       -5.3505066226
 O        -2.5383133617        1.5640585227       -1.6428782605
 C        -0.2478670750        1.8243173083       -4.5558957213
 C        -0.8912749197        3.6793395067       -3.0332670386
 C        -2.4264805201       -1.1463929025       -2.9316311943
 C        -3.1792481986       -1.4162208681       -1.5778558438
 C        -4.8126702135       -1.8051440945       -1.7067713354
 C        -5.8355763013       -0.8160617834       -1.0056869239
 C        -7.2133195478       -0.6098784514       -1.5675280819
 C        -5.3110020917       -2.0605725446       -3.1581633609
 C        -4.8076643509       -3.0624184353       -0.7832068013
 O        -2.7970503541       -1.3461180151       -0.4580498780
 O        -5.4313324185       -0.1486519607       -0.0647544415
 C        -8.2488891279       -0.2579101874       -0.3915736047
 C        -7.6115346312        0.2295581204        0.9798236718
 C        -7.4678131226        1.8331197177        1.2653832532
 C        -6.0715590049        1.9018195043        1.9920789611
 C        -5.8726043072        1.1656748386        3.3437698909
 O        -7.4759368090       -0.6021933699        1.8341965224
 O        -5.1097366660        2.3534707396        1.4553220479
 C        -7.3125502261        2.5847654345       -0.1227981416
 C        -8.6432307864        2.4048992960        2.1761822711
 C        -4.4663320850        0.9743229490        3.9192887983
 C        -3.4971453199        0.0308576606        3.0937971876
 C        -3.4544498311       -1.4235881465        3.5683230447
 C        -2.2353366006       -1.6124920869        4.7330821848
 C        -1.0823257624       -2.5410746106        4.4572527866
 C        -4.6943448053       -2.0183078188        4.1795519779
 C        -3.0879162207       -2.3632201958        2.4411916432
 O        -2.7833260591        0.3745559122        2.1956375667
 O        -2.3131556381       -1.1288653676        5.8184754678
 C         0.0197472845       -2.2798701510        5.4631354702
 C         1.0318075459       -3.4729100108        5.3846753975
 C         2.5769036908       -3.1648850095        5.2296027455
 C         2.9885685506       -2.1583737764        4.1234797945
 C         4.3786992456       -1.8500890373        3.8513697505
 O         0.5978589294       -4.6239103951        5.2945843654
 O         2.0784361958       -1.5241860837        3.5164065674
 C         2.8411562785       -2.6153536770        6.7087559906
 C         3.4023786989       -4.4951579026        5.0729915953
 C         4.7926517906       -1.9595826879        2.3473786765
 C         5.9312875856       -0.9299741179        2.0189829410
 C         6.0564891190       -0.2374975610        0.6187539755
 C         7.5817322443        0.1948411147        0.2143109218
 C         8.7673701232       -0.1797679201        1.1565927417
 C         5.5858499220       -1.2316927975       -0.4574119148
 C         5.1620641913        0.9855702915        0.6683279309
 O         6.6552279421       -0.3747074982        2.8854489836
 O         7.6218297430        1.0894451263       -0.6113176326
 C        10.1806158471       -0.1615416464        0.2883315034
 C        11.2085405164       -1.3443527955        0.6261225161
 C        12.6914244268       -1.2347356631        0.0672416717
 C        13.2391544018        0.1338398035        0.9824546230
 C        13.3128699904        1.5792477129        0.4090815669
 O        10.8551137256       -2.4081857739        1.0609317497
 O        13.4802678085       -0.0560717522        2.1445384277
 C        13.4666804526       -2.5080256409        0.5185585244
 C        12.6648267005       -0.7206247817       -1.4080033935
 H        -4.2050922253        3.6014388486      -10.2312566740
 H        -4.2321325221        2.2052715707       -9.2188227952
 H        -5.6226573225        2.6784007553      -10.1983094803
 H        -3.5508280444        3.1685952037       -6.5901688728
 H        -4.6127756213        4.3071316254       -5.8462791150
 H        -8.3010915218        4.0932819457       -7.8571923216
 H        -7.3632537287        4.5920261444       -6.6620543875
 H        -8.3489725108        3.1204271499       -6.5992950241
 H        -7.3462843905        1.8687833438       -9.4030330608
 H        -6.1259076668        0.7613397394       -8.7062208471
 H        -7.7706126384        1.1480921008       -7.8831295010
 H        -3.4755016642        4.0556859676       -3.9031004055
 H        -4.6125819349        2.7304679122       -3.6935122163
 H        -0.3632119315       -0.4013029343       -3.3841914809
 H        -0.8912889189       -0.3903989259       -1.6987753933
 H         0.7682745376        1.6789999900       -4.1663873307
 H         0.1230984399        2.5000727406       -5.3652359450
 H        -0.5574008921        0.8355672214       -5.0945660366
 H        -1.7873802657        3.9762281939       -2.4274996039
 H        -0.0248103967        3.6334561680       -2.3961327110
 H        -0.8110794055        4.3580336086       -3.8754492326
 H        -2.2712845853       -2.1522347777       -3.0938753908
 H        -3.1717621550       -0.7929912323       -3.7841182160
 H        -7.0828220044        0.3019705355       -2.1807921475
 H        -7.7363864175       -1.2434815811       -2.2660845652
 H        -5.3244883923       -1.1301853178       -3.7418127459
 H        -6.2445417280       -2.4234832843       -3.1854161504
 H        -4.6747603794       -2.8553860112       -3.6525558755
 H        -5.8150799436       -3.2799651801       -0.6605890764
 H        -4.4419210221       -3.9791795326       -1.2531153781
 H        -4.5077557736       -2.7783198843        0.1760315074
 H        -8.9663078480        0.5812322638       -0.6828630516
 H        -8.8414794764       -1.1721335764       -0.2334267425
 H        -6.2812879601        1.8803946483        4.1113453611
 H        -6.4323444917        0.1964744053        3.2056665795
 H        -8.2515638335        2.5557742640       -0.7955990742
 H        -6.5986101450        1.9426982875       -0.5769542754
 H        -6.9042629884        3.5997988246        0.0847182402
 H        -8.1624852873        2.4246075836        3.1345968861
 H        -8.8183367780        3.4200586000        1.9714154903
 H        -9.5437979789        1.8247429125        2.0694136786
 H        -4.4902724692        0.7022582137        5.0152050744
 H        -4.0910001495        2.1069416399        4.0024021896
 H        -1.4246569130       -3.5817341152        4.5222161261
 H        -0.7983467052       -2.3476700605        3.3512630248
 H        -5.2883443453       -2.2650458362        3.3263954094
 H        -5.3847245630       -1.4894741487        4.8559751028
 H        -4.4290655730       -2.9387587743        4.6487897340
 H        -3.9331231780       -2.2760146335        1.8401908112
 H        -2.2489332416       -1.9994822373        1.8346822054
 H        -2.9565645285       -3.3725277440        2.8093741097
 H         0.7185656298       -1.3708290188        5.1516599969
 H        -0.3090211784       -2.1097756211        6.4847203655
 H         4.5355512054       -0.8831708501        4.2184638062
 H         5.2234793103       -2.3886325479        4.3603557485
 H         2.0603729150       -1.9452351856        7.1218567228
 H         3.7818279196       -1.9777975492        6.7873306842
 H         2.9347065541       -3.3530435149        7.5490958865
 H         3.9569190780       -4.5159440771        4.1942446957
 H         4.0264062385       -4.5554658678        5.9477663807
 H         2.9374176761       -5.4034237600        4.9784711151
 H         3.9597606392       -1.5026816290        1.6839347569
 H         4.9387854300       -3.1014445104        2.0633566544
 H         8.9784343188        0.4832306932        2.0207798456
 H         8.7602476016       -1.1283588990        1.5680433730
 H         5.9159035816       -2.2311448778       -0.1696329342
 H         5.9835388039       -0.7330301227       -1.4258879280
 H         4.5473048528       -1.4614419009       -0.5339328969
 H         4.0358325467        0.7660514728        0.9153035343
 H         5.1582431725        1.7467746335        1.5691566440
 H         5.2635035426        1.6170354179       -0.2311427585
 H         9.8580411129       -0.3781898974       -0.7502915729
 H        10.5892976897        0.8167252735        0.3154111528
 H        12.9897025922        1.6272954486       -0.5941261948
 H        12.4823000888        1.9635146525        0.8659036809
 H        14.2622703125        1.9457307807        0.5868022076
 H        13.4497381756       -3.3255152746       -0.1782116743
 H        12.9628150029       -2.8809520645        1.4259759395
 H        14.5148982975       -2.3686602346        0.9111970883
 H        13.5749597978       -0.2517382832       -1.7932397521
 H        12.2548954132       -1.4792290124       -2.0536985355
 H        12.0387199980        0.1799291016       -1.5554704319
 Na       -3.5273274384        1.1859412703        0.2203757586
