155

 C        -6.1341777551        1.6566607002       -8.1632888618
 C        -6.2112798012        3.0285775042       -7.5391541265
 C        -7.3890808886        2.9904763817       -6.1827323949
 C        -6.8414475424        2.1881099736       -4.9494788228
 C        -5.8665260020        2.9869917362       -3.7958473433
 C        -7.5944373221        4.4557461519       -5.7494009561
 C        -8.6598734154        2.1294754522       -6.8106080505
 O        -5.4669780740        3.9668897859       -7.7599779099
 O        -6.9280920227        0.9330040186       -4.6698554859
 C        -4.5851393184        3.7564539776       -4.3067631054
 C        -3.3308783277        2.8555750858       -4.5208903607
 C        -2.1350806629        2.7331693228       -3.4916426818
 C        -2.4499385513        1.3973664820       -2.5809436391
 C        -2.7219074095        0.0824765620       -3.3680749672
 O        -3.3121714506        2.0886556238       -5.5028977087
 O        -2.6463176707        1.5681153870       -1.3635663056
 C        -0.7304210822        2.4399387363       -4.0472805564
 C        -1.9266587076        3.9438958427       -2.5494867369
 C        -4.2015621427       -0.2507765580       -3.0425708170
 C        -4.3130268429       -1.3308359813       -1.9811247286
 C        -5.6038618860       -2.0080161794       -1.5701459021
 C        -6.3694864335       -0.9199270481       -0.6211548921
 C        -7.8676871081       -0.7717085092       -0.6310015484
 C        -6.5148868009       -2.5730336947       -2.8027742137
 C        -5.2439823905       -3.1896477324       -0.5745689805
 O        -3.3198674336       -1.7346285177       -1.4528942027
 O        -5.6733129251       -0.1692737447        0.0523811668
 C        -8.3814863931       -0.2649986999        0.7605320106
 C        -7.3738649377        0.4181580625        1.7082190146
 C        -6.9875987349        1.9664868250        1.5200885977
 C        -5.4943809878        2.1660879231        1.8016453602
 C        -5.1387414319        2.2757482277        3.3473902080
 O        -7.2588086343       -0.0331253190        2.8241335495
 O        -4.6970478844        2.0543911004        0.9098537073
 C        -7.3689426675        2.3498337301        0.0257740388
 C        -7.8841084531        2.7677452204        2.3979365272
 C        -3.6163487565        1.8326458798        3.4631445165
 C        -3.3496992385        0.3748094458        3.6550863230
 C        -3.1414865013       -0.1679019077        5.0540260473
 C        -1.5042032364        0.0140005619        5.4187294074
 C        -0.6498693096       -1.2049896013        5.0137825583
 C        -3.8995050144        0.7421024894        6.1561371992
 C        -3.6244004653       -1.5842272092        5.2058010237
 O        -3.3872649510       -0.4304754014        2.7471620265
 O        -1.0170424769        0.9758407195        5.9484141072
 C         0.8826029340       -0.9848332508        4.9500822527
 C         1.5459867213       -2.3874044143        4.7536508295
 C         3.0626421647       -2.6870906412        4.2305180110
 C         3.4005210672       -1.8091349697        2.9739146533
 C         4.8233906931       -1.3343518450        2.8066032926
 O         0.9211568053       -3.3768517508        5.1297168546
 O         2.5911620557       -1.5694948004        2.1240423192
 C         3.9413552980       -2.6585672345        5.5038714247
 C         3.1372925863       -4.2078780694        3.7698887474
 C         5.0811129569       -1.3397924678        1.3071436350
 C         6.5207798552       -1.0228006686        1.1156570614
 C         6.9077555848       -0.3685880282       -0.3190574582
 C         8.5075243561       -0.2516386476       -0.3936712448
 C         9.5870539731       -1.3048294705        0.0545318807
 C         6.4201334692       -1.2227819033       -1.4757410468
 C         6.4034701747        1.0627719412       -0.3676551746
 O         7.3554611626       -1.3643503277        1.9551903311
 O         9.0723310404        0.8167049701       -0.7014559813
 C        10.4895730822       -1.6078196720       -1.1161374993
 C        11.4667772224       -2.7803128528       -0.8544380832
 C        13.0019683992       -2.6622503786       -0.6690113362
 C        13.3321162911       -1.5437696023        0.4929291610
 C        14.6429301547       -0.8033791887        0.8184624262
 O        11.0461168720       -3.9114614561       -0.9008162573
 O        12.3446159538       -1.0736280581        1.1419172636
 C        13.6156958615       -4.0355433249       -0.5370901127
 C        13.4901171773       -2.0105379343       -2.0356575542
 H        -6.1740208028        0.8643600363       -7.3565885685
 H        -7.0674448026        1.4782366085       -8.7189473059
 H        -5.0564493573        1.6125119221       -8.5846324960
 H        -6.5313950888        3.7408959258       -3.3759743596
 H        -5.6873978142        2.3539331835       -2.9765756093
 H        -8.2754130550        4.8761997080       -6.5445238405
 H        -6.6938554930        5.1180036230       -5.7511185944
 H        -8.0178639421        4.5415404115       -4.6889955056
 H        -9.5281392740        2.7677225745       -7.0864867001
 H        -8.2906924140        1.6588885959       -7.6729741393
 H        -9.0672135840        1.4125010093       -6.1245739311
 H        -4.9080805561        4.0939738922       -5.3001892733
 H        -4.3575703508        4.6189336064       -3.6148782276
 H        -2.5528987961        0.2893195775       -4.4725961803
 H        -2.0227713614       -0.7339540458       -3.1811987754
 H        -0.2899198994        1.6079515568       -3.4023061876
 H        -0.0710335590        3.3268782681       -4.3251952544
 H        -0.6765859776        2.0517837856       -5.0382741532
 H        -2.8223558803        4.0992939137       -1.9203810709
 H        -1.1363239277        3.7857257712       -1.8740934846
 H        -1.6139864410        4.9334865911       -2.9040825382
 H        -4.7610290045       -0.7359634664       -3.9527856921
 H        -4.7724938132        0.6743285248       -2.8329511290
 H        -8.1623604205       -0.0628110921       -1.4180294917
 H        -8.4320407403       -1.6775322962       -0.7907512500
 H        -6.8458487793       -1.7369351151       -3.4186980469
 H        -7.4523896744       -3.0983867990       -2.3264012972
 H        -6.0499627641       -3.2585620219       -3.4512294175
 H        -6.2334464654       -3.6168296559       -0.1421243762
 H        -4.6518644879       -3.9629029394       -1.0377165360
 H        -4.5604922384       -2.8863119228        0.2686924889
 H        -9.1866883063        0.4235487083        0.7216693316
 H        -8.5159876202       -1.1670704356        1.3683410800
 H        -5.3129802191        3.3031069442        3.7350358504
 H        -5.8605441380        1.5605932470        3.7763573061
 H        -8.1541708085        1.8084927621       -0.3710747696
 H        -6.5231073058        2.5164376432       -0.6548831022
 H        -7.7051697451        3.3571445581        0.0729857557
 H        -8.1040790759        2.2909609387        3.2802401541
 H        -7.3919514913        3.6973388598        2.6103256862
 H        -8.8207895768        3.1193780030        1.9249862778
 H        -3.0545948462        2.4319456626        4.2521052914
 H        -3.0342492654        2.1167558692        2.5965794253
 H        -0.9440477812       -1.8690172607        5.8220880711
 H        -1.1216911829       -1.5518595929        4.1483359547
 H        -4.7113338066        1.1848728845        5.5939018455
 H        -3.2607979121        1.4913428063        6.6271192252
 H        -4.3840390350        0.1659206118        6.9200408205
 H        -4.6669390725       -1.6690408296        5.4649042351
 H        -3.4147608596       -2.1183320570        4.2636726312
 H        -3.1658448367       -2.1230543140        6.0538550164
 H         1.1866510617       -0.2629329950        4.1180028230
 H         1.3356345496       -0.6044892055        5.8635171932
 H         4.9253563047       -0.3198022431        3.1784906264
 H         5.5923484491       -1.8898138088        3.3803508074
 H         3.7531257976       -1.6991228169        6.0347101285
 H         5.0024908920       -2.8746353583        5.2737125894
 H         3.6505389078       -3.4724330527        6.0579423293
 H         2.2119036970       -4.5586810997        4.2060258572
 H         2.9843634285       -4.2699642220        2.7246116156
 H         4.0221003128       -4.7020345599        4.1472513145
 H         4.3607904829       -0.6321891361        0.7179909365
 H         4.7888173789       -2.3798496136        0.8870546719
 H        10.0526539090       -0.9371406346        0.9836021437
 H         9.2710177279       -2.2539187890        0.4099264304
 H         7.3530663501       -1.3472275413       -2.0847794232
 H         5.6873935030       -0.6159096078       -2.1004735204
 H         6.0334474830       -2.1794120001       -1.1556097451
 H         6.2064259432        1.5637789916        0.5118647339
 H         7.1751565950        1.6734655572       -0.7112983277
 H         5.5931411147        1.0157385069       -1.0898452125
 H         9.7778429505       -1.9072670020       -1.9095431508
 H        11.2291570870       -0.8469225512       -1.4213418279
 H        15.0346200716       -0.9026395901        1.7951683313
 H        15.4708269680       -1.1553169083        0.3683466999
 H        14.3898515171        0.2684207808        0.8401904266
 H        14.7129478342       -3.8758502541       -0.4198208394
 H        13.4843594594       -4.6331772326       -1.4332996845
 H        13.0481939517       -4.5688014462        0.2633421131
 H        14.5589651804       -1.7874312832       -1.8806644264
 H        13.3107816148       -2.7856512871       -2.7973802754
 H        12.8802357998       -1.1748604192       -2.3802299470
 Na       -3.1212869238        0.0499278908        0.3690600837
