155

 C        -6.9005865714        2.9081409358       -7.9648955020
 C        -7.2747075257        4.1366960854       -7.1624959641
 C        -7.9091570673        3.8683019683       -5.7488737913
 C        -6.6419543455        3.5970051125       -4.7884487324
 C        -5.3477964850        4.5670622575       -4.9907592059
 C        -8.5954065915        5.1700699389       -5.0025095772
 C        -8.8251598585        2.5764119879       -5.8273254710
 O        -7.1630182382        5.2444487715       -7.6100065597
 O        -6.6103811744        2.7119417716       -3.8972254946
 C        -4.1668417068        3.5974135243       -5.3213782978
 C        -4.2009236748        2.1732489183       -4.7490161634
 C        -3.7390533988        1.6857395902       -3.3914678948
 C        -4.4395889712        0.3509970316       -2.6823382766
 C        -4.2349414045       -0.9543540717       -3.4854381719
 O        -4.5050527853        1.3868568920       -5.7041581281
 O        -4.8714644618        0.4390107077       -1.5331420658
 C        -2.1374210562        1.4412119565       -3.4561735769
 C        -3.8332560536        2.8450679818       -2.3071255470
 C        -4.6912455621       -2.2138984286       -2.6707171402
 C        -4.4525024302       -2.0965621513       -1.1588166248
 C        -5.4509853055       -2.7027563337        0.0321320454
 C        -6.0406122764       -1.3414447904        0.6272609591
 C        -7.3481989430       -0.8168823154        0.1509388468
 C        -6.5836386923       -3.5959783949       -0.4342381215
 C        -4.6693679583       -3.3217706719        1.1226736857
 O        -3.5917810561       -1.3314726459       -0.7944827356
 O        -5.4094912295       -0.6526747046        1.4510455528
 C        -8.2604907739       -0.3257566425        1.2596573755
 C        -7.4580717595        0.7148796423        2.2163986658
 C        -6.9879228638        2.1363622980        1.6456470722
 C        -5.3803698702        2.2563249067        1.7619060228
 C        -4.7455452790        2.3833910894        3.2683462854
 O        -7.4111527202        0.5487703757        3.4165127866
 O        -4.5971988945        2.2366963575        0.8119694915
 C        -7.3663638109        2.3603548555        0.0831088701
 C        -7.5523137535        3.1637547027        2.6314556227
 C        -3.0589786697        2.3107029422        3.3030503418
 C        -2.5811203954        0.9485375212        3.8802886099
 C        -2.3572328731        0.7348504432        5.3815057509
 C        -0.6934292768        0.3918637639        5.5110415206
 C        -0.0658396871       -0.6427826206        4.4418730675
 C        -2.6155944594        2.0169988391        6.3508815775
 C        -3.3510467015       -0.3211895292        5.8705415262
 O        -2.6304831995       -0.0349068511        3.1892312232
 O        -0.1791775902        1.0638763352        6.3260701965
 C         1.2048751157       -1.1691552186        5.0954417068
 C         1.9762542030       -2.1303527065        3.9489839618
 C         3.5519706820       -1.9304424118        3.6826223552
 C         3.6993061792       -1.3970406397        2.3050511001
 C         4.8992559044       -1.9350412233        1.5525564341
 O         1.3866627104       -2.8496786170        3.2416715186
 O         2.8919154430       -0.5505365761        1.8847336597
 C         4.1899401059       -0.9002488258        4.6446628657
 C         4.1466056093       -3.3063512780        3.9807071551
 C         5.3459797944       -1.4042639688        0.1821048252
 C         6.7850281070       -0.9955290382        0.1743321691
 C         7.3146192845       -0.4058163743       -1.2048622326
 C         8.9196481674       -0.4274816769       -1.5119316440
 C         9.4066326778       -1.8437807401       -1.2911339527
 C         6.6930331370       -1.1708952353       -2.3126026603
 C         6.7678035799        1.0692647145       -1.1626886369
 O         7.5443209638       -1.2481613711        1.0742992716
 O         9.5558105917        0.6541189587       -1.6247748745
 C        10.8857888513       -2.0637695545       -0.7185626982
 C        11.5884719139       -3.3836807860       -1.1334996834
 C        13.1746330524       -3.4247627888       -1.2375794446
 C        13.7206891707       -3.3654576628        0.2159509199
 C        14.9481553339       -4.1490973668        0.8776345773
 O        10.9085490998       -4.3672953366       -1.3363846040
 O        13.1507393556       -2.5999447375        1.0901481260
 C        13.6277378633       -4.8249286811       -1.7540432382
 C        13.6612619432       -2.3270308537       -2.1092812675
 H        -6.4564906500        3.4780922691       -8.7273425233
 H        -6.3839277279        2.1594926224       -7.4967469447
 H        -7.6965180823        2.4731101927       -8.4520658780
 H        -5.4400013488        5.2731860256       -5.7682470529
 H        -5.3164103021        5.1896557425       -4.0773511420
 H        -7.8679564418        5.9257316275       -4.9190009619
 H        -8.7922805218        4.7601230187       -4.0380876620
 H        -9.4910504877        5.6012580300       -5.5903132843
 H        -9.9118506068        2.9049642792       -5.9285973602
 H        -8.4803911659        1.9280662384       -6.5937998268
 H        -8.7882525855        1.9259792060       -4.8281521732
 H        -4.3085340642        3.3446690255       -6.3212856226
 H        -3.2622823297        4.1052613500       -5.3074882250
 H        -4.7584978836       -0.8681498138       -4.4241478847
 H        -3.1890834222       -1.0062634936       -3.8712904841
 H        -1.7221897244        1.2249087739       -2.4379129790
 H        -1.5487636651        2.2923378166       -3.9855437034
 H        -1.8742300202        0.5801717990       -4.1944596814
 H        -4.8667076175        3.1931098001       -2.2873859379
 H        -3.4968939396        2.6282330850       -1.3017916916
 H        -3.2562627578        3.7329956220       -2.6487424093
 H        -4.4084424966       -3.2137651437       -3.0659097970
 H        -5.9007546032       -2.1091470773       -2.6813419110
 H        -7.3358477817       -0.0136771300       -0.6430196104
 H        -7.9202704528       -1.6531925974       -0.2896086517
 H        -6.9890302401       -3.2588578322       -1.3098771180
 H        -7.3382149087       -3.8678088949        0.3809284963
 H        -6.1285229016       -4.5918309140       -0.7238508559
 H        -5.2894173412       -3.7821057609        1.8277191737
 H        -3.9855624540       -4.1535001394        0.7847268382
 H        -4.2515524799       -2.5354677445        1.7875865065
 H        -8.9680616781        0.3758133351        0.8563913763
 H        -8.7152070043       -0.9692187286        1.9926503762
 H        -5.1484565816        3.3090870210        3.8315170981
 H        -5.1717887810        1.5661183688        3.8995339317
 H        -6.6012659995        1.9462753570       -0.6218152807
 H        -7.3844768921        3.3878786121       -0.0912550645
 H        -8.3851539833        2.1242291144       -0.1283783349
 H        -7.1897303544        2.7928429572        3.6135635419
 H        -7.2962304591        4.1928280048        2.5045715391
 H        -8.5774912120        3.2468240662        2.7485807717
 H        -2.8339091814        3.0704961989        4.0332068833
 H        -2.6780119166        2.6116951516        2.3168645710
 H        -0.8144677644       -1.3009744833        4.1674918200
 H         0.2252885159        0.0468332640        3.5488089761
 H        -3.6925712628        2.3155469226        6.3949722758
 H        -2.1137994833        2.9477767579        6.1676682624
 H        -2.2760746877        1.7207672244        7.3535801130
 H        -4.3979598262       -0.0235540866        5.7995681851
 H        -3.1871917823       -1.2896818604        5.4775795936
 H        -3.3170242934       -0.3447999926        6.9341365711
 H         1.8873100296       -0.3171554426        5.2418041358
 H         0.9281370066       -1.7988375419        6.0191682417
 H         5.7298558891       -1.8203686092        2.3127463072
 H         4.6757436529       -3.1287755939        1.5018624164
 H         3.8051443788        0.0686204936        4.4568804546
 H         5.2409798652       -0.8416765616        4.5069352443
 H         4.1187742330       -1.1071825833        5.7391262293
 H         5.2188204832       -3.4366002664        3.7564992423
 H         4.1507959469       -3.4824278092        5.0619229784
 H         3.4912041668       -4.0045138977        3.5551618742
 H         4.7375748095       -0.7183460803       -0.2807603693
 H         5.2721821005       -2.2368461682       -0.4809169170
 H         8.7151845541       -2.3786299844       -0.6143185972
 H         9.4009565903       -2.3817593265       -2.2574002523
 H         6.1047733515       -0.6463890154       -3.0690730936
 H         6.0589290338       -2.0281460698       -2.0214630999
 H         7.3725959189       -1.6142801793       -3.1172264767
 H         7.5653789538        1.7870425302       -1.1624311534
 H         6.3866666129        1.3342046293       -2.1114063340
 H         5.9244997412        1.2386942050       -0.5321025887
 H        11.5094252346       -1.1003933101       -0.7141914313
 H        10.6518392072       -2.2458176693        0.3175491255
 H        15.3458506907       -4.9573528684        0.2869920810
 H        15.7805132519       -3.4852568646        1.1808547197
 H        14.6938896353       -4.4038895755        2.0474833723
 H        14.6628491680       -4.8442574797       -2.1650102067
 H        12.9882390580       -4.9610257755       -2.6694477695
 H        13.5167017053       -5.6454704034       -1.0453640239
 H        13.4374012381       -2.6749712785       -3.1358952011
 H        13.2576058569       -1.3088050413       -1.9303290639
 H        14.7210248061       -2.0893205538       -2.1597668891
 Na       -3.1940821320        0.3987091744        0.8888577813
