155

 C        -8.1489437105        3.6962994567       -8.2923097087
 C        -7.5642883895        4.4196867409       -6.9702210325
 C        -7.8660388606        3.8821326630       -5.4866812186
 C        -6.6370379070        4.3559437865       -4.5389452779
 C        -5.1905779030        4.2435612052       -5.1262562302
 C        -9.0326159934        4.6769779326       -5.0577234227
 C        -8.1637632904        2.3944657045       -5.2232974333
 O        -7.0616210998        5.5349625203       -7.0957738760
 O        -6.7752947906        4.9455426889       -3.5278656122
 C        -4.6696943564        2.8128694191       -5.4787759180
 C        -5.0031231646        1.6041068879       -4.6345870133
 C        -4.1527257229        1.2583076655       -3.3736403835
 C        -4.9207651239        0.1515305074       -2.7506834668
 C        -4.6164950826       -1.2754364243       -3.1771290115
 O        -5.8056048634        0.7344539890       -5.0502657971
 O        -5.6999558121        0.3256660347       -1.8266718974
 C        -2.7039239226        1.2444318583       -3.8990732625
 C        -4.0712227503        2.4045290463       -2.3715733335
 C        -5.2541399101       -2.3452751279       -2.2816329853
 C        -4.6660351175       -2.1231949123       -0.8034922088
 C        -5.4985730549       -2.6909382202        0.5047830131
 C        -6.2184542213       -1.3990331888        1.0143297503
 C        -7.7015525514       -1.3614194331        1.0511528803
 C        -6.4141617091       -3.8253104818        0.0896042338
 C        -4.5808033128       -3.3433662888        1.6142370304
 O        -3.8511036933       -1.2789842092       -0.5934837540
 O        -5.5442475499       -0.4425602084        1.3024767634
 C        -8.1989916298        0.1432413146        1.3485839956
 C        -7.1483332891        0.7892091795        2.3772147744
 C        -6.6243027916        2.3032527756        1.9676789874
 C        -5.0182826967        2.4214843305        2.0511697680
 C        -4.4032021030        2.8094064982        3.4675949111
 O        -6.9368450006        0.3245166592        3.4716649218
 O        -4.3126544088        2.1438414193        1.1072527530
 C        -6.9783324534        2.6808675521        0.4266390177
 C        -7.2045976089        3.2135286013        3.0150825355
 C        -2.8295867527        2.5341903406        3.4742217494
 C        -2.5565639709        1.1333742292        3.9633722074
 C        -2.2562591136        0.8739453298        5.5166585262
 C        -0.6017292596        0.7145649467        5.4549962709
 C         0.0316470035       -0.4089611350        4.6067525013
 C        -2.6319773691        2.0936149729        6.4131173129
 C        -2.9336179470       -0.5059512236        6.1202585551
 O        -2.4946090517        0.1326250731        3.2504991419
 O        -0.0139577632        1.5020965126        6.1939443989
 C         1.5524526416       -0.1662522705        4.5203281121
 C         2.0988049036       -1.4029733366        3.7797017461
 C         3.5965987559       -1.5169106022        3.2966166067
 C         3.7668957815       -0.9065352984        1.9089808209
 C         5.0695638343       -1.4586589910        1.2038771653
 O         1.3142643211       -2.3571292846        3.6191227559
 O         3.0189696914       -0.0912324573        1.4608612461
 C         4.4941907388       -0.7884635217        4.3995843644
 C         3.8411292053       -3.0507881987        3.3749618143
 C         5.5247931672       -0.6956006558        0.0656815519
 C         7.0658917778       -1.0165127031       -0.1737476023
 C         7.5849222525       -0.5834071789       -1.6083035804
 C         9.1935679298       -0.8150070515       -1.4692233980
 C         9.9580634856       -2.1468367304       -1.8499163623
 C         6.9946979085       -1.5169656276       -2.7806126191
 C         7.3918594818        0.9121538340       -1.5626658898
 O         7.7056224728       -1.5034524123        0.7471288548
 O         9.7224919737        0.1130603555       -0.9988980933
 C        11.4828065950       -2.2110066414       -1.6856481080
 C        11.9192583664       -3.6775174191       -1.8888053436
 C        13.3406675190       -4.0845632032       -1.5121839079
 C        13.3015307661       -4.0924728452        0.0700849924
 C        14.6836987386       -4.5584094708        0.7337972120
 O        11.0731771753       -4.4361830195       -2.3293229756
 O        12.3661657731       -3.8302891303        0.7664794992
 C        13.6865042504       -5.4254682897       -2.1289218233
 C        14.4444318602       -2.9109935494       -2.0000516737
 H        -8.2718701959        4.3030397886       -9.1735006823
 H        -7.4759964068        2.8612989308       -8.7432770831
 H        -9.0873072271        3.2918209897       -7.9080613138
 H        -5.2476541999        4.7293227698       -6.0618720223
 H        -4.4478842165        4.8504926594       -4.4937906134
 H        -8.8619748537        5.7690564461       -5.1984894079
 H        -9.2280375973        4.3420919483       -4.0809110330
 H        -9.8455882486        4.3778558403       -5.6684160099
 H        -8.9894568215        2.3101762658       -4.5681573655
 H        -8.4511925839        1.8049845597       -6.0937537993
 H        -7.4060334865        1.8308313344       -4.8741581618
 H        -5.0129322484        2.6051960109       -6.5650224391
 H        -3.5742448681        2.9151270193       -5.5313484397
 H        -4.8563010321       -1.5495901530       -4.1866819103
 H        -3.4844764555       -1.4771460508       -3.0302175045
 H        -2.0237320315        1.5799189945       -3.0469565076
 H        -2.5665080405        2.0400476120       -4.6530223429
 H        -2.4536213758        0.2487993136       -4.2548120797
 H        -5.1223887717        2.5436129722       -2.0057615598
 H        -3.4990982020        2.2373914543       -1.5430008947
 H        -3.8652820908        3.3311644456       -2.9308665829
 H        -5.0834105137       -3.3790178057       -2.5817254169
 H        -6.4045296366       -2.4630878365       -2.2222615750
 H        -8.1544752790       -1.4779944193        0.1008109183
 H        -8.0547653372       -2.0925360724        1.7797513268
 H        -7.2633017202       -3.4943481443       -0.5447461459
 H        -6.8876020422       -4.2138388739        0.9889324810
 H        -5.8711351136       -4.5412893896       -0.3488188918
 H        -5.3476963133       -3.7998683019        2.3730189082
 H        -4.0794298715       -4.2076826044        1.2736585530
 H        -3.7374435456       -2.7364591020        2.0014830682
 H        -8.2293180714        0.8152284069        0.4097407491
 H        -9.2248181171        0.1343128401        1.8335832823
 H        -4.6084083938        3.8381118697        3.8468565039
 H        -4.7797321030        2.1934755111        4.2406341424
 H        -6.9118910643        1.8751405134       -0.2534361122
 H        -6.3397015566        3.5193892263        0.2020362481
 H        -8.0566940693        3.0252922767        0.4856693579
 H        -6.8657944868        2.7280846979        3.9398207055
 H        -6.7627062296        4.2070382321        3.1537299984
 H        -8.3375953788        3.1075309927        3.1719267059
 H        -2.2793799646        3.2006338040        4.2705276066
 H        -2.4370556305        2.7521524300        2.4180791823
 H        -0.2262099974       -1.2705599156        5.1514519956
 H        -0.6263335261       -0.5285854636        3.6755401698
 H        -3.6804421984        2.1562989488        6.7385694608
 H        -2.3567729298        3.0453461529        5.8605060081
 H        -2.0995080140        2.0886406464        7.3491087944
 H        -3.9820118294       -0.7323331870        5.8337310503
 H        -2.4083666384       -1.4393119657        5.9143270339
 H        -2.7442453973       -0.4443208662        7.1988169600
 H         1.9651197103        0.6357371701        3.8795271991
 H         2.0028974738       -0.0230631248        5.4760161955
 H         5.9055373119       -1.5599959840        1.9356793880
 H         4.9296524472       -2.5464452666        1.0418037069
 H         4.1529302041        0.2548401735        4.7219983924
 H         5.6014923207       -0.5414622296        4.2085523820
 H         4.5362780750       -1.3745330280        5.2783235639
 H         4.8256187746       -3.3744853673        3.1373164508
 H         3.4385220175       -3.4340506172        4.3013853720
 H         3.3247856119       -3.5585622842        2.5674472228
 H         5.5316198906        0.3636805097        0.3900704556
 H         4.8497228924       -0.9192358630       -0.8526355030
 H         9.5041253571       -3.0631208134       -1.5231089736
 H         9.7289769694       -2.1804041013       -2.9001667375
 H         7.8918834871       -1.6837558904       -3.3756860076
 H         6.1982677072       -0.9145788226       -3.3566141195
 H         6.4490904581       -2.5199418513       -2.6101663633
 H         8.0691530010        1.3198837630       -0.8424821655
 H         7.4225694613        1.4474521855       -2.5800990645
 H         6.3808149361        1.1606251221       -1.1873357357
 H        11.9090987736       -1.4952226301       -2.4703461291
 H        11.6470073075       -1.9972455384       -0.6515141322
 H        14.6041485934       -4.0104816730        1.7101074647
 H        14.3994817397       -5.6167213955        0.9554663675
 H        15.4513795008       -4.2302393262        0.2080160008
 H        13.1781443479       -5.6060438404       -3.0088173411
 H        13.4725365688       -6.2741891704       -1.4747798476
 H        14.7410224154       -5.6357342656       -2.2598954179
 H        14.3385111217       -2.5076941164       -2.9985540971
 H        14.2069119331       -2.0374918294       -1.4635828738
 H        15.5228318257       -3.1610354039       -1.9880131296
 Na       -3.2890647920        0.4189635944        1.1102841850
