155

 C        -9.1676142308        4.4778834390       -8.0152501584
 C        -7.8880655370        4.5234813272       -6.8921866048
 C        -8.3260629380        4.4145537078       -5.4112033371
 C        -7.1612119833        4.5947477642       -4.5950973055
 C        -5.5381347213        4.1102722859       -4.8561167939
 C        -9.3561477750        5.5282761135       -5.1897330315
 C        -8.8538742809        3.0385197466       -5.0886271259
 O        -6.8782607031        4.8888352588       -7.3465622702
 O        -7.1907172685        5.1411231853       -3.5088366259
 C        -5.4055925999        2.7418837345       -5.5695044797
 C        -5.2236751911        1.3747537829       -4.6629130718
 C        -4.2623207296        1.0901306476       -3.3714075959
 C        -5.0242558678       -0.2245954320       -2.6657028732
 C        -4.7380551608       -1.6288518837       -3.0956959683
 O        -5.8025424150        0.3436034150       -5.0593396879
 O        -5.6014745808        0.0004331654       -1.6224307697
 C        -2.8786381661        0.8404737318       -3.9814677474
 C        -4.1778368010        2.2069008097       -2.2677500003
 C        -5.2682069517       -2.5388018337       -1.9776925521
 C        -4.7701500853       -2.3101431403       -0.5613058689
 C        -5.5653996927       -2.7617679517        0.6766627772
 C        -5.7671852445       -1.5100189825        1.6850076650
 C        -7.2580327599       -1.0637187887        2.0730176623
 C        -6.9172640972       -3.5264528017        0.2792839197
 C        -4.6884244409       -3.6920390138        1.5640847537
 O        -3.6815185115       -1.8428856422       -0.3592176530
 O        -4.8057200025       -1.2731024154        2.3256613809
 C        -7.7467392897        0.3050561191        1.7612405924
 C        -7.2304045355        1.4277281290        2.7458888474
 C        -6.6556202162        2.8665534664        2.0314450654
 C        -5.2366865621        2.5686832856        2.2497577384
 C        -4.6462261923        2.8366267167        3.6304146667
 O        -7.2684404418        1.1936624406        3.9293126286
 O        -4.5684802091        2.1084625266        1.3223980506
 C        -7.0181509617        3.0189351989        0.5807314487
 C        -7.1105531518        4.1179083742        2.8640446563
 C        -3.0991971033        2.6576059460        3.7841897471
 C        -2.5756701482        1.2502200853        4.1418749094
 C        -2.0151607535        0.8743598361        5.5911065721
 C        -0.4787550296        1.1921786110        5.3883111423
 C         0.5653446676       -0.0180210092        5.1666907880
 C        -2.6578660279        1.7981686499        6.7582383015
 C        -2.4737787217       -0.5540916161        5.9077759939
 O        -2.5058201518        0.4160477517        3.2538601658
 O        -0.0673607313        2.3804966397        5.2931379512
 C         1.2421155910       -0.0360872074        3.7685226487
 C         2.0484275286       -1.4135648650        3.4853860737
 C         3.6287485361       -1.4549227239        3.2050483099
 C         4.0024067982       -0.6131097131        1.9246227977
 C         5.1898551120       -1.3466469525        1.1545757267
 O         1.5256063854       -2.4904682559        3.5728609882
 O         3.2648904508        0.2118265568        1.4354125306
 C         4.5171772397       -0.9846451674        4.4459109300
 C         4.0159862610       -2.9274261821        2.9745963302
 C         6.1053651732       -0.3422132599        0.3389797526
 C         7.3970313148       -1.1088667238       -0.2758951120
 C         7.9169696735       -0.5280267388       -1.6664530029
 C         9.4704010975       -0.9581510839       -1.8012247886
 C         9.8875782529       -2.4335797641       -1.7331177393
 C         7.1969283155       -1.1922892870       -2.8706993708
 C         7.6641273803        0.9889726967       -1.8900414318
 O         7.9095806918       -2.1072645543        0.2620094722
 O        10.2398378996       -0.1276084949       -2.1623862664
 C        11.4669827638       -2.4607826577       -1.4607896429
 C        12.1261059690       -3.6758881510       -2.3121645983
 C        13.4081652949       -4.4692122715       -1.6625273034
 C        13.2576963308       -4.7442167283       -0.1606695451
 C        14.3939718108       -4.6327254357        0.8560537237
 O        11.7145055842       -4.0588658577       -3.3824599214
 O        12.0494778437       -5.0615376068        0.2243972763
 C        13.6106542875       -5.8666161141       -2.3154797455
 C        14.5722820436       -3.5576189773       -2.1353879546
 H        -8.9995246367        5.2211395201       -8.6746308175
 H        -9.1754559864        3.5613120623       -8.5392775034
 H       -10.1146643741        4.5511277604       -7.7327192117
 H        -5.2417901900        4.8915626513       -5.5421915480
 H        -4.9798439986        4.1434932079       -3.9569913061
 H        -8.8011661208        6.4746066187       -5.0499684632
 H        -9.8623553646        5.5409956633       -4.2819436799
 H       -10.0641352794        5.3699317342       -6.0100124442
 H        -8.2302353020        2.2875633262       -5.6511094853
 H        -8.8684507318        2.7707429343       -4.0504351662
 H        -9.8225466405        2.8241209239       -5.5325492909
 H        -6.1348552305        2.6594010852       -6.2851155309
 H        -4.4751680908        2.7787635130       -6.1408881070
 H        -5.2731908438       -1.8954390659       -4.0783484211
 H        -3.6769245789       -1.7403627071       -3.0589883015
 H        -2.1704819657        1.4986404234       -3.4754423129
 H        -2.9244632236        1.0436414446       -5.1286172162
 H        -2.6603114503       -0.2510439713       -3.9488327008
 H        -5.1606515887        2.1161189880       -1.7692755176
 H        -3.3415727777        2.0907484625       -1.5799575578
 H        -4.0501900624        3.2117958222       -2.6937154836
 H        -5.2187501126       -3.5405294572       -2.2327076170
 H        -6.4122246521       -2.4538572784       -1.8860415413
 H        -7.9077731336       -1.8394215175        1.5115831732
 H        -7.2747585042       -1.4940031548        3.0832885154
 H        -7.5968546027       -2.9789723466       -0.3541084481
 H        -7.4603527125       -3.9527372295        1.2548962577
 H        -6.6732398892       -4.3799587759       -0.3400759582
 H        -5.0515768908       -3.6115102852        2.6022521705
 H        -4.6316505135       -4.7446714340        1.3419180252
 H        -3.7035985904       -3.1562524476        1.6195562966
 H        -7.5691167257        0.6058011642        0.7563292449
 H        -8.7663875146        0.4444424347        1.8714355693
 H        -4.7050400546        3.9194764256        3.8389403239
 H        -5.0692928416        2.2810640051        4.5619651560
 H        -6.5058777486        2.3385934452       -0.0867264764
 H        -6.7546757688        3.9777984564        0.3089480163
 H        -8.0894417162        3.0174160624        0.5650499178
 H        -7.1591781864        3.9740169305        3.9972655735
 H        -6.4493838743        5.0235812521        2.6702238251
 H        -8.1252188227        4.3946522196        2.5169890725
 H        -2.8415981084        3.3466186981        4.6055597383
 H        -2.5858777774        3.0966223740        2.9037715624
 H         1.3373202851        0.1048442445        5.9008557639
 H        -0.0603547722       -0.9092625319        5.4763710436
 H        -3.7579419509        1.7957347006        6.7820618396
 H        -2.3467989264        2.8020691904        6.7540196836
 H        -2.1583541303        1.4318050795        7.6642421091
 H        -3.5500970372       -0.5623315679        6.0834265188
 H        -2.3419351399       -1.1921713736        5.0496235956
 H        -2.0611831920       -1.0248539669        6.7809474263
 H         0.4345073145       -0.1334738939        2.9526851550
 H         1.8606937954        0.8985405110        3.5999258888
 H         5.6735978756       -1.9913695709        1.8362151405
 H         4.6969040653       -1.9580419701        0.2639238708
 H         4.4437922998        0.1022392071        4.6853799903
 H         5.5955584082       -1.1554258517        4.1881691584
 H         4.4848097700       -1.5077561060        5.4427811919
 H         4.9743374608       -3.2046343014        3.3503346131
 H         3.3934081203       -3.5647006724        3.5563310168
 H         3.8066932990       -3.2574178449        2.0412756253
 H         6.4765309148        0.4258165874        1.0055503602
 H         5.5469218528       -0.0334691763       -0.5009637481
 H         9.4400789548       -2.7765187152       -0.7862168213
 H         9.4173898038       -3.0516850289       -2.5050001719
 H         6.3806150708       -1.6858747025       -2.3705291702
 H         7.7681121177       -2.0859376372       -3.2857582780
 H         7.0245164507       -0.5387373392       -3.7550844662
 H         8.1734649124        1.7217339299       -1.3066608019
 H         8.0231123313        1.1173157021       -2.8718999936
 H         6.6411502059        1.0988067991       -1.7356293543
 H        11.8338348581       -1.5102953271       -1.8980484860
 H        11.7944672292       -2.5979903970       -0.3594915390
 H        15.0864948666       -5.4125965451        0.5067550113
 H        14.5301201185       -3.4989341734        0.8668698482
 H        13.9221858634       -4.8785484721        1.6742326694
 H        14.6054909921       -6.2626936044       -2.3737627495
 H        13.1895745660       -5.7385060158       -3.2965549522
 H        13.1301983792       -6.6920762408       -1.9243523686
 H        14.7153276181       -3.5299060979       -3.2114816573
 H        14.5737823163       -2.5832714717       -1.5898595569
 H        15.5135750195       -3.8630156241       -1.7203921056
 Na       -3.0431291547        0.1487924610        1.0221148993
