155

 C        -9.4970432709        5.0658352751       -7.5393270752
 C        -9.7166058370        4.3850500722       -6.1888578924
 C        -9.1424727585        4.9794695204       -4.9166185141
 C        -8.1210078707        3.9975424610       -4.4812780494
 C        -7.2614399625        3.1402993070       -5.6643113509
 C        -8.5199296090        6.3590641791       -5.1115882650
 C       -10.4180582124        5.0770694964       -3.9261627686
 O       -10.2201322749        3.2988597529       -6.1249020656
 O        -7.6729833511        3.9053404180       -3.3432177128
 C        -7.5281133328        1.6329821976       -5.3510457391
 C        -7.1177126793        1.1038309865       -3.9035728264
 C        -5.6353388816        0.8147262613       -3.3515641883
 C        -5.7422344895       -0.1349406038       -2.1225170240
 C        -5.3897246679       -1.6795681774       -2.1462483399
 O        -8.0699204668        0.4276821988       -3.5128040581
 O        -6.0046763089        0.4429550811       -1.0585564348
 C        -4.7976266676        0.3165977316       -4.6062549409
 C        -5.0378199035        2.1199247901       -2.7603949039
 C        -5.9191582149       -2.4025726117       -0.9019664101
 C        -5.6160542370       -1.6626403853        0.4974360192
 C        -6.3817107814       -2.1804849975        1.8308095107
 C        -6.4786877335       -0.8609836695        2.6040802684
 C        -7.8868890732       -0.0540901862        2.8204382213
 C        -7.6566040478       -2.8252943700        1.3134825795
 C        -5.3949028000       -3.3045187128        2.4513331956
 O        -4.6096343660       -0.9870879629        0.5817843334
 O        -5.4729510170       -0.2562729380        2.9288157666
 C        -7.6554505492        1.3015824442        2.2602982156
 C        -6.7389684771        2.1734221481        3.2799326589
 C        -5.7299427738        3.3037593095        2.6231795851
 C        -4.3732443980        2.4875617777        2.6034223521
 C        -3.3514573534        2.6713695402        3.7759176932
 O        -6.9117504617        2.1227135721        4.4834989306
 O        -4.0201913745        1.8824227600        1.5814814433
 C        -6.2427562862        3.6608742659        1.1596266066
 C        -5.8042299034        4.4869204149        3.5958443050
 C        -1.9120440203        2.2873128386        3.4524542797
 C        -1.5393736816        1.0820165736        4.2225728865
 C        -0.4611778769        1.2797131871        5.2625410530
 C         0.7786779730        2.0643393712        4.6180656323
 C         2.1880025415        1.5504349536        4.6555514991
 C        -1.0216941862        2.1637190491        6.3500829949
 C        -0.1099888757       -0.1186645485        5.9268341078
 O        -2.0243985156       -0.0426403058        4.0090065755
 O         0.5587763051        3.1688219803        4.1106662266
 C         2.6405141294        0.9413836401        3.2428184695
 C         3.0947611603       -0.6796842416        3.2511332488
 C         4.5147564470       -1.0723718878        2.5684230613
 C         4.4994776681       -0.9509147280        0.8969488489
 C         5.7009851729       -1.3572147298        0.0474556957
 O         2.4941357548       -1.4774941208        3.9985443874
 O         3.4369760477       -0.5462551843        0.4531434420
 C         5.6259159891       -0.0952096635        2.9766625992
 C         4.7884370997       -2.5638728386        3.0229458692
 C         6.6787205366       -0.2247080678       -0.3513452588
 C         7.9991268715       -0.8956591487       -0.7037675641
 C         8.9806889234       -0.4624600958       -1.9116466518
 C        10.3909779442       -1.3352923330       -1.7547582453
 C        10.4783098520       -2.7698296091       -2.4175708018
 C         8.2021775089       -0.7019452766       -3.3830101256
 C         9.1526042732        1.0558430852       -1.7008052265
 O         8.2780767569       -1.9072542132       -0.0975789475
 O        11.2778242160       -0.9423111901       -1.1428810449
 C        11.8699327629       -3.4535693635       -2.6125675200
 C        11.9264236083       -4.8156136059       -3.3412181451
 C        13.0297208841       -5.7886731115       -2.8888539635
 C        12.4287741717       -6.6747825633       -1.8346768498
 C        11.1205728947       -6.4247282184       -1.2167130958
 O        11.3043475277       -5.0223988483       -4.4774720496
 O        13.0586893772       -7.6845267954       -1.4498099733
 C        13.5100837527       -6.7628844295       -3.9791028497
 C        14.3307328605       -5.0457041905       -2.2746888918
 H       -10.5255488384        5.2029961618       -7.9132336229
 H        -8.9271188742        5.9759699770       -7.6901838733
 H        -9.1428072484        4.1844417220       -8.0341745331
 H        -7.7055619115        3.2835203051       -6.6236403573
 H        -6.1906908707        3.1116421567       -5.9006729047
 H        -7.4659895141        6.3882893990       -5.5608766059
 H        -8.3466516017        6.9677787823       -4.1318939988
 H        -9.0095234394        6.7788288118       -5.9529773791
 H       -10.7568241586        6.0724180883       -4.0605094902
 H       -11.0553191843        4.3720635896       -4.3527401469
 H       -10.2162365608        4.9432798063       -2.9238406061
 H        -8.5277979599        1.3759417543       -5.5225246246
 H        -6.9591602407        1.1470721691       -6.1727452096
 H        -5.7420256887       -2.1479591026       -3.0460856195
 H        -4.3112634662       -1.7296984915       -2.0970613069
 H        -4.5965199335       -0.6849822319       -4.3685250556
 H        -3.7547429969        0.7411480834       -4.8548185759
 H        -5.2005938591        0.2642071329       -5.6256489927
 H        -4.8375481268        2.8483634154       -3.6281964703
 H        -5.6062993369        2.6957605370       -2.1389374769
 H        -4.1100584757        1.9058592659       -2.2106446724
 H        -5.3164914550       -3.3804626959       -0.8325472803
 H        -6.9139957469       -2.8422819351       -1.1102051799
 H        -8.8006954830       -0.5162217348        2.4216583908
 H        -8.0640279638       -0.1825541131        3.9240930494
 H        -8.3012837380       -2.1493175816        0.7618920694
 H        -8.3733204396       -3.0060746258        2.1390579120
 H        -7.4342661182       -3.5309314253        0.6697741550
 H        -5.8929364784       -3.7237754388        3.3784629627
 H        -5.2395289272       -3.9456935121        1.6926594048
 H        -4.4012477959       -2.8190041102        2.6366787437
 H        -7.1492266216        1.1175593758        1.3359871088
 H        -8.4517305585        1.9548136283        1.9173887370
 H        -3.3614626749        3.8179855171        4.0566317354
 H        -3.8582108409        2.0504444849        4.4851384044
 H        -6.1392947503        2.8439842789        0.4371982876
 H        -5.5194989289        4.4199161554        0.7942001975
 H        -7.3172623197        4.0518475108        1.0301954812
 H        -5.6509297936        4.2180295316        4.6562476062
 H        -5.0906075581        5.2525182950        3.2051207093
 H        -6.8038947980        4.8787514741        3.4444081820
 H        -1.2363137326        3.0665649342        3.7052109167
 H        -1.7899075975        2.0461783213        2.3327012729
 H         2.9701029871        2.2810491018        4.7442863951
 H         2.1758401258        0.7943093914        5.4195291487
 H        -1.7433701018        1.5086276827        6.8407544190
 H        -1.3491616768        3.1312251804        6.0858256601
 H        -0.2972456717        2.1515999855        7.2084645546
 H        -1.0049027213       -0.5685200948        6.2514270162
 H         0.2437494277       -0.8197388778        5.1878018255
 H         0.6153819005        0.0248886047        6.7013897214
 H         1.8274856170        0.9807074588        2.4697134656
 H         3.5760044338        1.4596021520        2.9291003755
 H         6.1549252088       -2.2208313026        0.4886841854
 H         5.1845189108       -1.5498809249       -0.9790737686
 H         5.4155042736        0.9417478147        2.7084818981
 H         6.5415039983       -0.4178211110        2.4487388419
 H         5.7815394192       -0.1191644711        4.0429594580
 H         5.8956213803       -2.5918321649        2.9689671876
 H         4.3343931711       -2.6231864542        3.9928358821
 H         4.3963172966       -3.2177736345        2.2616759118
 H         6.8938542572        0.3797949234        0.4571088249
 H         6.1341032981        0.3950964770       -1.0961271174
 H         9.7983070870       -3.5272907320       -2.0800532097
 H        10.0798746379       -2.5596043982       -3.4263508189
 H         8.2346001561       -1.7592379297       -3.5472553322
 H         8.7460269760       -0.2154843638       -4.2132384984
 H         7.0810552268       -0.6140576133       -3.2554878578
 H         9.8130195553        1.3224591523       -0.8544773796
 H         9.3496523148        1.5461704784       -2.6148734045
 H         8.1150082549        1.4527659322       -1.6279082255
 H        12.4544233189       -2.7345965482       -3.1387229704
 H        12.1270674323       -3.6842655030       -1.6504270489
 H        10.8118593392       -5.3796918506       -1.0200541076
 H        10.2847108209       -6.9240215235       -1.7841781486
 H        10.8928007553       -6.9765921942       -0.4423976742
 H        14.4307077456       -6.2158188793       -4.3554367749
 H        12.8812135205       -7.0625672275       -4.8774594512
 H        13.8449170632       -7.5443828037       -3.3043843460
 H        14.7515473654       -4.4043082910       -3.0502463550
 H        14.1249836847       -4.4600697477       -1.3918054077
 H        15.0192436648       -5.9379335237       -2.2190803275
 Na       -3.1640131053       -0.1873291496        2.2079094751
