155

 C       -12.0640327339        4.8137308922       -4.9318843140
 C       -10.8837324382        4.3366596802       -5.8225109408
 C        -9.4446173434        4.8307288968       -5.2886000007
 C        -8.8342476629        3.6349083782       -4.2580276054
 C        -8.1968819408        2.4386811932       -5.1070268803
 C        -8.5768624576        5.2738184709       -6.5694859047
 C        -9.4785020188        6.0699642478       -4.3771385113
 O       -10.9761826044        3.7194262145       -6.7979749270
 O        -9.0140020443        3.7189005342       -3.0741982439
 C        -8.4120080206        0.9908036560       -4.6673297987
 C        -7.8230890645        0.7752718030       -3.1745205608
 C        -6.2222008271        0.9476828300       -2.8287544400
 C        -6.1989275713        0.1128302774       -1.4285445185
 C        -6.1877803557       -1.4836272799       -1.5847322232
 O        -8.4865474038        0.3744626363       -2.2816769186
 O        -6.2065822789        0.6722062028       -0.3249265100
 C        -5.1934561208        0.2908269395       -3.8019438490
 C        -5.8070422167        2.4067044631       -2.5546112567
 C        -6.4547898669       -2.1664688405       -0.2700704535
 C        -5.6561623461       -1.5532322688        0.8777585382
 C        -6.2829928563       -1.7055913643        2.4666199206
 C        -6.5839205579       -0.1180377244        2.7008104595
 C        -7.8055001693        0.5162200503        2.1989577155
 C        -7.5610667129       -2.4780490562        2.8203600046
 C        -5.1198284424       -2.1903084593        3.2881297242
 O        -4.5222193241       -1.1438805016        0.7391425673
 O        -5.6407457941        0.6044732587        2.9991984286
 C        -7.7210611049        2.2113514874        2.3678938918
 C        -6.6359526056        2.9357821174        3.2153180725
 C        -5.3526215524        3.8069992373        2.4484986027
 C        -4.2001185715        2.8149765623        2.6367195598
 C        -3.4252284379        2.7149440504        4.0352877953
 O        -6.6830357861        2.9741541388        4.3911119917
 O        -3.8179025645        2.1636981919        1.6717252880
 C        -5.5708318939        4.1586617161        0.9391409333
 C        -5.2586000857        5.1798964203        3.2296907223
 C        -1.8538239102        2.6668898509        3.9513256186
 C        -1.3448495098        1.2795085624        4.3842957123
 C        -0.0771935912        1.2541871480        5.2340364656
 C         1.2012673291        1.4524530613        4.3086109584
 C         2.4164609649        0.3928995304        4.1735321107
 C        -0.1925066758        2.3761808411        6.3036421871
 C         0.0021611595       -0.0815118149        6.0327065875
 O        -1.9179259369        0.2222255509        4.0597349029
 O         1.3148651777        2.4969679010        3.7910132908
 C         3.5146620142        0.7209709115        3.1660436730
 C         4.2832882898       -0.6032685748        2.6702606103
 C         5.7773836783       -0.6616097356        2.3671388953
 C         6.0618758757       -0.7921139880        0.8263044727
 C         5.8143532438       -2.0198438830       -0.0978650402
 O         3.6049599241       -1.6591829693        2.6458175537
 O         6.3625490892        0.2164711214        0.3002001613
 C         6.6470924850        0.4940861977        2.7934307852
 C         6.1938075286       -1.9519803865        3.0416749495
 C         6.5320382826       -1.8696884155       -1.4055699736
 C         8.0871009861       -2.0121086889       -1.4086861411
 C         8.9622923480       -0.7464263436       -1.9209314081
 C        10.2162213684       -1.4919648274       -2.1577999856
 C        10.3136531405       -2.8101568453       -3.1527338779
 C         8.4478744665        0.0646322308       -3.1539214209
 C         9.2071642122        0.3624158317       -0.8408677584
 O         8.7374048233       -2.9501580700       -1.0142939648
 O        11.2286313675       -1.1413317498       -1.7364091281
 C        11.3532160799       -3.7944693081       -2.7010802040
 C        11.3091089028       -5.0828496275       -3.4426979886
 C        12.5901492611       -6.0761651731       -3.3814480423
 C        11.8479555244       -7.3685762993       -2.7358365414
 C        12.2770383454       -8.7490372399       -3.4041360404
 O        10.4759817845       -5.4262858584       -4.2263907945
 O        11.2860742401       -7.2308281974       -1.6444144232
 C        13.2707321940       -6.2428631772       -4.8158215853
 C        13.7801527652       -5.6616375943       -2.3797973321
 H       -12.1770880714        5.9074170509       -4.7668927041
 H       -13.0594595215        4.5263099503       -5.3149682368
 H       -11.8605932394        4.2955210593       -3.9777827059
 H        -8.7508339891        2.6225594685       -5.9800696494
 H        -7.1516940078        2.6073543623       -5.0356919753
 H        -8.1714665569        4.4703504912       -7.2110280767
 H        -7.7168699861        5.8375713565       -6.1486154926
 H        -9.3460541054        5.7321203851       -7.2352992011
 H        -9.8186011097        6.9361374315       -5.0322438155
 H       -10.3917686849        5.9076322724       -3.6875387166
 H        -8.5334125443        6.1883300185       -3.8448739684
 H        -9.3974616232        0.5988203094       -4.7436786909
 H        -7.8344648836        0.3707543805       -5.4506341991
 H        -6.9799282412       -1.5480847356       -2.2897740268
 H        -5.3706902616       -1.9392230954       -2.1341397855
 H        -4.2264920899        0.6733313255       -3.5833233141
 H        -5.5579303730        0.4079797019       -4.8820801730
 H        -5.0797426902       -0.7804072434       -3.5991247013
 H        -6.3645584640        2.8771604336       -1.7655064164
 H        -4.7351601266        2.3204228918       -2.2609273706
 H        -5.7967476444        2.9745391558       -3.5834969158
 H        -6.1760871339       -3.2562528803       -0.5022175082
 H        -7.4993604479       -2.1255965988        0.0225427747
 H        -7.8892214090        0.4201782612        1.1157983782
 H        -8.6977335441        0.1583666335        2.7817015354
 H        -8.4958169084       -1.9792148642        2.5889361960
 H        -7.6942128725       -2.4747312104        3.8832947926
 H        -7.5614538100       -3.4690628533        2.3228830390
 H        -5.3191206946       -3.2709553140        3.6270858246
 H        -4.2474958873       -2.1977817573        2.6978064294
 H        -4.8190120737       -1.6557431768        4.2542723049
 H        -7.8038276848        2.5544216947        1.3401712103
 H        -8.7045690974        2.4057986599        2.9215496796
 H        -3.5813304120        3.5498873309        4.7842064734
 H        -3.6025336084        1.8898671205        4.6239022124
 H        -5.4789786431        3.1701159179        0.5568841433
 H        -4.6784047312        4.6686114946        0.5924509531
 H        -6.5664997746        4.6278484123        0.6438936473
 H        -4.6372947402        5.2371962022        4.0508874126
 H        -4.7978984519        5.8704716986        2.5675629197
 H        -6.2302241727        5.6061447517        3.5375648024
 H        -1.4095575680        3.4810613823        4.4776723908
 H        -1.3935950149        2.8086895785        2.8923670154
 H         2.7046043439        0.3738912432        5.2368210506
 H         2.0778378441       -0.5824958910        4.0694455265
 H        -1.1850519553        2.3765935665        6.6927963185
 H         0.0636106245        3.3390744101        6.0447759723
 H         0.2548873157        2.0534284442        7.2420820925
 H        -0.8500958291       -0.0274246724        6.6837161492
 H        -0.1833819006       -0.9851900637        5.4108645686
 H         0.9156519713       -0.3020158511        6.5616862380
 H         3.1966422866        1.0469221615        2.1244916491
 H         4.0512881629        1.6116312639        3.5698251330
 H         5.9812509157       -3.0287665922        0.3335050191
 H         4.7020802815       -1.9489609962       -0.1197598991
 H         6.3852355907        1.4237500702        2.3941994597
 H         7.6826933734        0.4134275227        2.5191331141
 H         6.5167847056        0.6982184808        3.7516114857
 H         6.9851309768       -2.4026743822        2.3922597381
 H         6.5334168424       -1.9020332904        4.0725222743
 H         5.3366724813       -2.6098383107        3.2613412773
 H         6.2666352406       -0.9544524718       -1.8840419911
 H         6.2344259965       -2.6193774388       -2.1087137304
 H         9.4006855914       -3.3550989040       -3.0130985308
 H        10.4592259861       -2.5452192710       -4.1825492998
 H         9.0691448633        0.6209797286       -3.6961467111
 H         7.5656141022        0.6454716015       -2.8730719461
 H         8.1963174736       -0.7390136071       -3.8170542156
 H         9.3601405294        0.0541981349        0.2077763002
 H        10.1113115459        0.9675407986       -0.9598789303
 H         8.2871661669        1.0302896576       -0.8618393679
 H        12.3734581205       -3.3715103523       -2.7457002835
 H        11.3709170231       -4.0842873649       -1.7198332362
 H        11.8332200853       -9.5542874415       -2.7962846908
 H        11.8745574212       -8.6527894122       -4.4198182936
 H        13.3192492460       -8.8309913983       -3.0108303129
 H        14.3663259037       -6.2244220663       -4.7484091030
 H        13.0611087721       -5.4414045509       -5.5183406754
 H        12.8448788369       -7.1284732008       -5.1554349807
 H        14.4887792101       -4.9017087608       -2.7266690860
 H        13.3874186072       -5.2408431697       -1.4665780915
 H        14.5040281016       -6.4716300270       -2.1091174426
 Na       -3.4432246990       -0.1334694347        2.3607693302
