155

 C       -11.8803160876        4.0354165327       -4.4149012463
 C       -11.0672100108        4.2970366766       -5.6616889957
 C        -9.5099264693        4.6525648380       -5.3336753768
 C        -9.0522054965        3.4411632621       -4.4547098605
 C        -8.5369033412        2.0953827536       -5.1752456340
 C        -8.8615489437        4.9525032360       -6.7489925771
 C        -9.4324590095        5.9516989453       -4.5011697309
 O       -11.5251727745        4.4360644956       -6.7439532066
 O        -8.9683280236        3.5328543843       -3.2181657601
 C        -8.8422871276        0.9309557784       -4.3333631792
 C        -8.2250357566        1.0159425428       -2.8879896544
 C        -6.5975432695        1.0986986307       -2.7357185826
 C        -6.1158442925        0.2100308315       -1.4386557504
 C        -5.9089833070       -1.3345766085       -1.3697176469
 O        -8.9156923696        0.5327085018       -2.0224453906
 O        -5.9240335832        0.7326113497       -0.3631597602
 C        -5.9063854205        0.4256372660       -4.1118792177
 C        -5.8458469365        2.4771106744       -2.4337349678
 C        -6.3878015037       -1.9922695772       -0.1055884216
 C        -5.4975867057       -1.5366413629        1.2186680860
 C        -6.3340933499       -1.2480318147        2.6440891467
 C        -6.4093476087        0.2787364746        2.7230794408
 C        -7.6179464686        0.9356492586        2.3875269829
 C        -7.7346498019       -1.8750573926        2.8184890128
 C        -5.5317655490       -1.9687649522        3.8459737734
 O        -4.2727446643       -1.5495141830        1.2639574815
 O        -5.5069273242        0.7994394788        3.4052673875
 C        -7.6656254970        2.4211089133        2.9220545424
 C        -6.2758193977        3.0401427877        3.4711952812
 C        -5.1820740025        3.8692647186        2.5541770419
 C        -3.8623145394        3.0372654716        2.4921069545
 C        -3.0560897173        2.8803170655        3.7696807939
 O        -6.2536546745        3.0749788667        4.6957013114
 O        -3.6160853057        2.3624959864        1.4843855230
 C        -5.7110109437        3.8340532267        1.0332089586
 C        -5.0632019990        5.2499011523        3.1375289071
 C        -1.5763618559        2.4329991196        3.5393278714
 C        -1.2128863546        1.1307920382        4.2763624529
 C         0.0996106659        1.0764974560        5.0108166620
 C         1.2225396139        1.2437570066        3.8490193526
 C         1.9682914898       -0.0009584518        3.3092794227
 C         0.2262919414        2.2503578323        6.0179041772
 C         0.1995855836       -0.2289125243        5.8497441243
 O        -1.8911320418        0.1021724360        4.0594444376
 O         1.3277898138        2.2810080408        3.2736533679
 C         3.4600348315        0.2283134806        3.4264207829
 C         4.4164528945       -0.8461332466        2.7066942682
 C         5.9216793419       -0.5980876415        2.6197334538
 C         6.1697112902       -0.5504098986        1.0036984455
 C         5.6786665158       -1.6714394363        0.0965393171
 O         3.8565053846       -1.7343248959        2.0850490478
 O         6.6684717469        0.4481924835        0.5170829366
 C         6.3349394821        0.7481894123        3.1286496343
 C         6.6528884944       -1.8771525525        3.2769932216
 C         6.4512807339       -1.4896808465       -1.2232599178
 C         7.9778343445       -1.8470061711       -1.0485718206
 C         8.9275176215       -1.0122041556       -1.8663380416
 C        10.2759917461       -1.7287963157       -2.2902112453
 C        10.2037802312       -3.0495746227       -3.1547544104
 C         8.4406834364       -0.5758981255       -3.3251997657
 C         8.9834386934        0.2298076864       -1.0075025771
 O         8.3645490165       -2.5936926965       -0.1496574311
 O        11.3439195337       -1.1232288148       -2.1458380059
 C        11.2812679553       -3.9667240596       -2.7307031585
 C        11.5288828778       -5.0219190488       -3.8042531796
 C        12.5160572366       -6.2491782606       -3.5755425175
 C        11.6373006858       -7.5505672209       -2.9969190909
 C        12.5703716497       -8.9125930365       -3.2757166136
 O        10.8034568464       -5.1034868368       -4.8052911346
 O        10.6449659837       -7.5515121966       -2.3825337342
 C        13.1270806915       -6.4617492011       -4.9758501316
 C        13.5797661840       -5.9508621579       -2.5400161344
 H       -12.4264827633        4.8993323886       -4.2137487382
 H       -12.6157152818        3.3417021359       -4.6263173397
 H       -11.3104939686        3.7848803999       -3.5941427602
 H        -9.0747025867        2.0903221796       -6.1313667701
 H        -7.5307328379        2.2857655535       -5.2786395099
 H        -9.2038957269        4.1940971605       -7.3836704298
 H        -7.9344840075        4.6070617583       -6.5663097640
 H        -9.0541529522        5.9862788427       -7.0881073025
 H       -10.3087636440        6.6492354538       -4.6667298494
 H        -9.2589605181        5.5936219371       -3.4250113445
 H        -8.5383202832        6.6086334913       -4.7280762200
 H        -9.7999403252        0.6060498379       -4.3338364551
 H        -8.3394799553        0.0702642729       -4.7696557272
 H        -6.3744039052       -1.7415237415       -2.2645102873
 H        -4.8761705168       -1.4587680810       -1.5499987086
 H        -6.6743799556        0.4127256451       -4.9241743347
 H        -5.7164752530       -0.5958599655       -3.7776840244
 H        -5.0644309948        0.9727708879       -4.4647297197
 H        -5.1991736329        2.7886208136       -3.1949683188
 H        -6.6111567365        3.2130223653       -2.3328712203
 H        -5.3373041091        2.3583656346       -1.4073222454
 H        -6.3507416850       -3.1021349314       -0.2027392344
 H        -7.4750595466       -1.6847792055       -0.0128452101
 H        -7.6627287810        0.7579808295        1.2915387398
 H        -8.5410097256        0.4908602346        2.8586540147
 H        -8.3085297322       -2.0372363183        1.9093666309
 H        -8.1661862172       -1.3720746727        3.5927448160
 H        -7.6386864366       -2.9624150837        3.1060026837
 H        -5.3484299502       -3.0494136766        3.7046841298
 H        -4.4604670700       -1.5268076146        3.9876980309
 H        -5.9223584739       -1.8558384892        4.8469971100
 H        -8.1569142928        3.0037079808        2.1672738345
 H        -8.4180301761        2.4617828232        3.7184615813
 H        -3.0254799386        3.8357608699        4.4317146009
 H        -3.5869333210        2.1445891777        4.3280161227
 H        -5.6658217764        2.9234359405        0.5436926747
 H        -5.2200111397        4.6133208381        0.5575413041
 H        -6.7586288615        4.1521245385        1.0992666302
 H        -5.5411073962        5.4788981680        4.0159863757
 H        -4.0776392351        5.6003335867        3.2156036875
 H        -5.6757064882        5.8984219537        2.4713642618
 H        -0.8609788777        3.2007386291        3.7914057900
 H        -1.6049368859        2.3579430538        2.3429495049
 H         1.5768754558       -0.7762635231        3.9071037359
 H         1.6793309438       -0.1740656056        2.2943853179
 H        -0.2491822094        2.0739360431        6.9953644429
 H         0.1554091524        3.2457833421        5.6586373579
 H         1.3253418809        2.2516335960        6.3356587593
 H        -0.6332401230       -0.4854847231        6.5255678874
 H         0.0787737812       -1.1494829530        5.2070220939
 H         1.1672614895       -0.1662194712        6.4407315856
 H         3.7047361366        1.1121591169        2.7213464534
 H         3.6868245766        0.4250208200        4.4864089123
 H         5.5319062132       -2.6772370014        0.5162141643
 H         4.6425861263       -1.3483942672       -0.2659016869
 H         5.6220556766        1.5391607553        2.9816542639
 H         7.2462505838        1.2040227620        2.6758983075
 H         6.4783128688        0.7355087613        4.1562168401
 H         7.6735539554       -1.9263506592        2.8456152709
 H         6.6347294507       -1.9436612392        4.3665697901
 H         6.1858349120       -2.7570889110        2.7822141980
 H         6.1586249759       -0.6097852195       -1.7517912729
 H         5.9696145102       -2.3282099689       -1.7552478899
 H         9.2392583847       -3.5719151155       -3.2796385015
 H        10.4650285159       -2.6319336034       -4.1348974058
 H         9.2446770433       -0.3512677795       -3.9551755699
 H         7.8499241057        0.3375098458       -3.2471057221
 H         7.9241339185       -1.3674743354       -3.8512951842
 H         8.9282390407        0.1116479960        0.0457020826
 H         9.7875628690        0.9268537687       -1.3488678196
 H         8.1152703701        0.9088044514       -1.3259144155
 H        12.2597069779       -3.5279986768       -2.6015186014
 H        11.2729506678       -4.3509599663       -1.7931542307
 H        12.5262511178       -9.6409465236       -2.4214845210
 H        12.0101170344       -9.0513791143       -4.3167545699
 H        13.4771648509       -8.5357833703       -3.3316497439
 H        13.2176203578       -7.4666311622       -5.3655331989
 H        14.1192538465       -6.0574195737       -4.7371246187
 H        12.7202238210       -5.8222224598       -5.6843551211
 H        13.8238750997       -4.9176300670       -2.5810529097
 H        13.2746069998       -5.9766097370       -1.4938428103
 H        14.5336598849       -6.4923861923       -2.5575306934
 Na       -3.1454128717        0.2461905320        2.3122968403
