155

 C       -12.7138980713        4.3468625735       -3.4302262955
 C       -12.2109083913        3.9371466689       -4.7588689376
 C       -10.5694880584        3.9679660710       -5.0138712245
 C       -10.1045338774        2.9005530553       -4.0110619292
 C        -9.9606508225        1.5172727691       -4.3952342626
 C       -10.2217113664        3.4322747708       -6.4642544248
 C        -9.9513076924        5.4060431067       -4.7092034639
 O       -12.8459613668        3.6861365876       -5.7487748736
 O        -9.7399723047        3.1991921775       -2.8677357467
 C        -9.7335870562        0.3675915053       -3.3187235702
 C        -8.8290620468        0.8345829479       -1.9596315141
 C        -7.3507746622        0.9308359444       -2.0235327885
 C        -6.7207875654        0.6805748439       -0.6186355504
 C        -6.0829908601       -0.6422449114       -0.4416148479
 O        -9.4043492369        0.8951990477       -0.8921386159
 O        -6.7722146466        1.4933499794        0.3308586016
 C        -6.8744015507       -0.0667178286       -3.1319147426
 C        -7.1067160290        2.3868758016       -2.3711081508
 C        -6.7758216523       -1.4125061720        0.6281736674
 C        -6.4183878464       -0.9001032472        2.0938189418
 C        -7.5571587671       -0.0589445995        2.9086206632
 C        -6.8750811474        1.3805833645        2.9490302404
 C        -7.6185174214        2.7672582620        2.9810113114
 C        -9.0062384818       -0.0460473772        2.1645404760
 C        -7.7967683642       -0.8106606227        4.3044830214
 O        -5.3460639318       -1.2504346085        2.5457309691
 O        -5.7115283746        1.3783648710        3.1823233693
 C        -6.6446596823        3.7879808546        3.7493851952
 C        -5.1823872542        3.5322121792        3.7150255066
 C        -4.2197031082        4.1651027580        2.4689680842
 C        -3.0216006537        3.3358891243        2.2408594932
 C        -1.7750895741        3.3396538865        3.2182993245
 O        -4.6186141602        3.3436821254        4.7642127269
 O        -3.1056648598        2.4427728754        1.3953634577
 C        -5.0464645114        4.5792208470        1.3503681066
 C        -3.8182924098        5.5470815581        3.2343188927
 C        -0.6777948045        2.4364161843        2.6503573476
 C        -0.3605271917        1.0864108095        3.2481617347
 C         1.0838544171        0.9175023054        3.8783202009
 C         1.9619000561        0.7748971072        2.5168767123
 C         3.0308056619       -0.2119454163        2.3586869228
 C         1.4351433407        2.2767196998        4.6393605683
 C         1.2785269952       -0.2126177575        5.0065753962
 O        -1.1661778816        0.1993246495        3.4620426044
 O         1.6086229047        1.3502525853        1.5020331724
 C         4.2252715261       -0.0376608577        3.3392691500
 C         5.1875850604       -1.3090740561        3.2672141686
 C         6.6479598053       -1.0199867968        2.7023087554
 C         6.7064838687       -0.0226343040        1.3878803071
 C         7.1453951864       -0.5996700338        0.0167466045
 O         4.7470113205       -2.3783061025        3.5799823299
 O         6.3175767635        1.0666361736        1.6342008392
 C         7.5554757936       -0.2953257503        3.8949514931
 C         7.4030852376       -2.3417984792        2.3028725840
 C         8.5940572664       -0.0802548178       -0.4647917800
 C         9.3583578978       -1.4118234122       -0.9877824894
 C         9.5848888352       -1.5406675320       -2.5617108582
 C        10.3577831346       -2.8674745858       -2.6369624456
 C         9.4962411292       -4.1591333946       -2.5642969886
 C         8.1671979704       -1.4921869629       -3.2595797732
 C        10.4511732986       -0.2892178515       -2.8826655398
 O         9.6690014501       -2.2547162094       -0.1630570707
 O        11.5224677633       -2.8533906436       -2.5302793571
 C        10.4752325918       -5.3517276676       -2.9723541600
 C        11.0361014990       -5.3160412807       -4.3717911872
 C        11.8607569757       -6.6689880817       -4.6543724221
 C        10.8196975323       -7.8984309368       -4.3093297394
 C        11.1203220821       -8.5398694053       -3.0778830577
 O        11.1112251060       -4.3379897331       -5.1111826732
 O        10.0405556330       -8.1604752385       -5.1709424870
 C        12.3698184414       -6.5077379354       -6.0964881219
 C        13.1192951103       -6.5241913270       -3.6923712838
 H       -13.4299470523        3.6849787150       -3.2877818473
 H       -12.0648269911        4.3699868008       -2.6302462022
 H       -13.0914195714        5.3234627892       -3.6488317340
 H       -10.9647147132        1.0896310066       -4.8165458427
 H        -9.1518114411        1.4369855909       -5.0789705205
 H       -10.9675771118        2.8279566150       -6.9014817632
 H        -9.2428933213        2.9334535862       -6.4014397507
 H       -10.2030128001        4.1814580969       -7.1317509960
 H       -10.4366527575        6.1799244673       -5.1704853224
 H       -10.0332080296        5.5846446481       -3.7059391137
 H        -8.9589356510        5.6349492139       -5.0037565744
 H       -10.6244026310       -0.0607206519       -3.0248284399
 H        -9.1969729443       -0.4404863084       -3.6822016289
 H        -5.9226314384       -1.2047312087       -1.3326291649
 H        -5.0484550037       -0.3779190050       -0.1521487807
 H        -7.1629547074        0.0911958105       -4.2335719069
 H        -7.3082454179       -1.0459461365       -3.0706728507
 H        -5.8173419493       -0.0557080658       -3.0364104116
 H        -6.0410446029        2.6099407140       -2.4998014365
 H        -7.5257292822        2.5025010156       -3.4417210281
 H        -7.5175146175        3.1064575919       -1.7538124674
 H        -6.5244995125       -2.3834433680        0.7416054498
 H        -7.8743191591       -1.5302068921        0.2672800401
 H        -7.6771616271        2.9720066767        1.9160352095
 H        -8.5805893523        2.7089644036        3.5003088048
 H        -9.1122638424        0.7284434687        1.5179947295
 H        -9.8130552786       -0.1093083751        2.9580215297
 H        -9.3172285126       -0.9432036547        1.6700850344
 H        -7.7652300517       -0.2208050968        5.1831625787
 H        -8.7185175872       -1.3941408812        4.3175762883
 H        -7.0760494506       -1.5766553705        4.4290984382
 H        -6.8179477766        4.8344010454        3.5181721731
 H        -6.9939208317        3.7287533158        4.7472386108
 H        -1.3846085058        4.3846812216        3.4199816627
 H        -2.2663283569        3.0356023566        4.1496891212
 H        -5.7335702529        3.7121060188        1.0666938968
 H        -4.4818188662        4.8433112560        0.4116145121
 H        -5.6342590539        5.4796579489        1.6804059089
 H        -3.1266502724        5.3122694830        4.0899473302
 H        -3.3083331871        6.2732742355        2.6075294263
 H        -4.6521149865        5.9783572921        3.8242680789
 H         0.2780221038        2.9265924099        2.6650250959
 H        -0.8961558435        2.4893012310        1.5015436272
 H         2.6397209585       -1.1399480454        2.4995203327
 H         3.3247079586       -0.2327221703        1.2981607728
 H         0.6638330325        2.4634979321        5.3769836561
 H         1.7692561063        3.0921442977        4.0670933782
 H         2.4358101939        2.1105490226        5.1200323724
 H         0.4705463179       -0.1677431215        5.6337061060
 H         1.1876242241       -1.1353983677        4.5336990270
 H         2.1333339537       -0.0857222998        5.6166677138
 H         4.7838212939        0.9288915747        3.0956182220
 H         3.8932503018        0.1184588797        4.3514604369
 H         7.1441356823       -1.7124914359       -0.0768419791
 H         6.2260361118       -0.1227009181       -0.4915162009
 H         7.2277880723       -0.7954616030        4.8252432251
 H         7.4720318238        0.7338751098        3.7525423117
 H         8.5980342706       -0.7154067498        3.5530425064
 H         8.2605068075       -2.1416413002        1.6567146658
 H         7.8542491593       -2.9997821961        3.0701172697
 H         6.7501013320       -2.8372931486        1.5817337546
 H         9.2684953293        0.3619971710        0.3158510959
 H         8.4362424579        0.7910538687       -1.0810207087
 H         9.1142485960       -4.5299885373       -1.5547453149
 H         8.6638035644       -4.1192107674       -3.2827124691
 H         8.4559395801       -1.4825919173       -4.4085946946
 H         7.4587398676       -0.6222912192       -3.1251977387
 H         7.6084700151       -2.3817141635       -2.9362717591
 H        11.2913110034       -0.2296335850       -2.2529610879
 H        10.9159533068       -0.2299878296       -3.8951062280
 H         9.9025036910        0.6417874859       -2.8507256479
 H        11.2597137402       -5.2014703218       -2.1867429459
 H         9.8789922734       -6.2078095441       -2.9245394779
 H        11.6440141919       -8.0031833754       -2.2110309319
 H        10.2882839765       -9.2546102203       -2.6850031530
 H        11.7387049213       -9.2863319044       -3.2421548176
 H        13.2529504083       -7.1491837082       -6.0565597229
 H        12.7275180522       -5.4768458323       -6.1386651549
 H        11.7735777951       -6.8520089395       -6.8883283497
 H        13.7639549434       -5.6826559743       -3.8015306747
 H        13.0448157616       -6.3814063035       -2.6481755405
 H        13.6397077091       -7.4688043927       -3.5953688898
 Na       -3.3776456338        0.1975083543        2.6400737932
