155

 C       -13.0329839143        4.7907419911       -3.6742829295
 C       -12.3075564484        3.7722530628       -4.6573552405
 C       -10.7314651774        3.9017674672       -4.8504663891
 C       -10.1721233105        2.9055657940       -3.8272258125
 C        -9.9270263597        1.3710701079       -4.2262269209
 C       -10.3930214370        3.5827520590       -6.3094540761
 C       -10.0903941235        5.2390372686       -4.5590067117
 O       -12.9818931159        3.0958094540       -5.4896241233
 O        -9.8777439668        3.3097305024       -2.7323399920
 C        -9.9704215359        0.4318666462       -3.0107300945
 C        -9.0492343908        0.7596971579       -1.9051913833
 C        -7.3274740458        0.9604989826       -2.2278230427
 C        -6.7790924534        0.7977660218       -0.7161836982
 C        -6.2030662847       -0.5418092535       -0.2221066025
 O        -9.4396349391        0.9146465837       -0.7800550284
 O        -6.8709667586        1.6910612852        0.0608756737
 C        -6.6549174768        0.0968408394       -3.2638539918
 C        -6.9592119625        2.4367504590       -2.6225004746
 C        -7.0450897165       -1.4240713532        0.8203625116
 C        -6.7027253595       -0.8754255074        2.1746776099
 C        -7.5598744403        0.1565416497        2.9754121011
 C        -6.6145787222        1.3450508153        3.0537000418
 C        -7.3942826592        2.6581077846        3.0813834323
 C        -8.9959360038        0.3963641908        2.3974426860
 C        -7.7108630202       -0.3659266800        4.5626686981
 O        -5.5692063568       -1.1417911536        2.5950761247
 O        -5.3862058565        1.3118528613        3.0161182767
 C        -6.6998900867        3.8029419548        3.6626628018
 C        -5.1665093276        3.6403953113        3.7310352159
 C        -4.1564415083        4.2059785798        2.6367478923
 C        -3.0928370283        3.1978471216        2.3285038211
 C        -1.8070149453        3.2539330365        3.1446024531
 O        -4.7520822900        3.2515806907        4.8046702416
 O        -3.2788550585        2.4148788621        1.4059701907
 C        -4.9067204345        4.3964713615        1.2429483421
 C        -3.6170201290        5.5137515925        3.0971462734
 C        -0.7679149967        2.4038013604        2.4158701206
 C        -0.3277560347        1.0519076711        3.2537096538
 C         1.1316828368        0.9599830161        3.7614991840
 C         1.9821375539        0.7348090110        2.5259704639
 C         3.1401715525       -0.2256022949        2.4617628455
 C         1.7615423138        2.2553405733        4.4006385908
 C         1.1893489774       -0.3299217667        4.6978358515
 O        -1.1550427338        0.2157905054        3.5532308428
 O         1.7084161027        1.2286600931        1.4538008110
 C         4.3259070946        0.0720425274        3.3005086630
 C         5.2989056753       -1.0493008379        3.1331362756
 C         6.8670076980       -0.9375656833        2.6713619702
 C         6.8420686820        0.0776665725        1.5542247188
 C         7.1605907127       -0.3052467661       -0.0386197790
 O         4.9816579683       -2.2033398660        3.4058825262
 O         6.4065920896        1.2474409065        1.7764700854
 C         7.7278455910       -0.4626626364        4.0568647282
 C         7.2965993601       -2.3353133782        2.3825322268
 C         8.6783733583       -0.1479454490       -0.2332518647
 C         9.3311925921       -1.3726352971       -0.8175180192
 C         9.7179913761       -1.4853596370       -2.5002069482
 C        10.3179228007       -2.9028814327       -2.6954714844
 C         9.4799712778       -4.1056068416       -2.8037423001
 C         8.3648883137       -1.2371971746       -3.2781284218
 C        10.7291039760       -0.4039864600       -2.8474605126
 O         9.4915439275       -2.3039001966       -0.0589860732
 O        11.5971456772       -2.9369298607       -2.7674226934
 C        10.3948529051       -5.4272021027       -2.8868120864
 C        10.9027679349       -5.5248766698       -4.3839925055
 C        12.0168741663       -6.7281994192       -4.7024967159
 C        11.0357205290       -7.8592884350       -4.4731042223
 C        11.1175999916       -8.7635816142       -3.2671987383
 O        10.4967102460       -4.7104550126       -5.1887213715
 O        10.1688453508       -8.1761011909       -5.3523802721
 C        12.2454556916       -6.5900084496       -6.2711943339
 C        13.2903086861       -6.9671813979       -4.0145338994
 H       -14.0687035509        4.5253142437       -3.1647452110
 H       -12.2280447898        4.9445291486       -2.8147920251
 H       -12.9669255423        5.7382305158       -4.3437267085
 H       -10.4634487938        0.8634952133       -4.9117542142
 H        -8.7924630859        1.1986252561       -4.3609611931
 H       -11.3406764212        3.5183669623       -6.9616378859
 H        -9.9887222534        2.5783814109       -6.3793395464
 H        -9.8502383976        4.3545381965       -6.9807473618
 H       -10.0145728593        6.0102972844       -5.3204859378
 H       -10.5426194364        5.7042391883       -3.6450033381
 H        -9.0280300873        5.0722164403       -4.2956027017
 H       -10.9219049077        0.5123237501       -2.4189065400
 H        -9.8368565733       -0.6692769372       -3.2429427564
 H        -6.0061448642       -1.2078232558       -1.0711907924
 H        -5.2075098599       -0.5001535166        0.2053549057
 H        -7.2312294002        0.3148326154       -4.0873119888
 H        -6.8942804971       -0.9834475745       -3.3167251330
 H        -5.5529857162        0.2601703055       -3.4064131894
 H        -5.8941032625        2.6838831218       -2.5959567617
 H        -7.0139147753        2.6248048441       -3.6807934802
 H        -7.4306357626        3.1835604941       -1.9508932282
 H        -6.6384316648       -2.4990475882        0.7262563247
 H        -8.0815351288       -1.4863771549        0.6869589191
 H        -7.7129316530        2.9368397431        2.0509765294
 H        -8.2179898027        2.4251249650        3.7683317986
 H        -8.7506656889        0.4706376746        1.2802856935
 H        -9.6019896344        1.1590377055        2.6991287349
 H        -9.6761684895       -0.4881329845        2.6100772778
 H        -7.6831538685        0.5241889833        5.1973143699
 H        -8.6428543276       -0.9835645548        4.8175506765
 H        -6.8704679740       -1.0118832925        4.8447143794
 H        -7.2276468761        4.6245567973        3.1029447047
 H        -7.0767948562        4.1079756147        4.7177750065
 H        -1.5517634022        4.2840304854        3.0897711970
 H        -1.9653071326        3.0567750007        4.2236789325
 H        -5.0280019322        3.4309708858        0.8506098661
 H        -4.2357696602        4.8406493682        0.5265234493
 H        -5.8339094290        4.9751785247        1.2676159147
 H        -3.2489627000        5.6070730201        4.0974838228
 H        -2.7715419976        5.8043618528        2.4096126732
 H        -4.4225789839        6.3087047817        2.9561902895
 H         0.1004285732        3.0704663410        2.1780028493
 H        -1.1127292097        2.1825970876        1.4213512023
 H         2.8220194083       -1.3346499615        2.8352573700
 H         3.3711815496       -0.3168498216        1.3803978585
 H         1.1165370868        2.5675623371        5.2216468843
 H         1.8192031639        3.0144095795        3.6124929704
 H         2.7967168762        2.1841855316        4.5730358175
 H         0.4068062070       -0.4644529088        5.4859902195
 H         1.2004387054       -1.2509593464        4.0668225461
 H         2.0897923674       -0.1694273906        5.3288264701
 H         4.6563970887        1.0661752446        3.1691706533
 H         4.0741702275        0.0498502591        4.4023622186
 H         6.8443537754       -1.3765950209       -0.1146186174
 H         6.5496556809        0.2310904881       -0.7023344045
 H         8.0994985402       -1.3710691569        4.3769544716
 H         6.9801853205        0.0396626598        4.7023886746
 H         8.4356641116        0.2093416399        3.7580945899
 H         8.3453483914       -2.4990557675        2.1663964547
 H         7.0749402523       -2.9931773811        3.1717640132
 H         6.7724834597       -2.6689081213        1.5158632921
 H         9.0854071824        0.0022021998        0.7571879984
 H         8.8727971264        0.8185410506       -0.6944005746
 H         8.7456703508       -4.1585869946       -2.0363757011
 H         8.9547061907       -4.0200649919       -3.7829072537
 H         8.4379195528       -1.3448953026       -4.2990911061
 H         8.0081336950       -0.2030588779       -3.0739167709
 H         7.5677522737       -1.8267550565       -2.7895249514
 H        11.7457593822       -0.5818228342       -2.4027567278
 H        10.8171928103       -0.3500838114       -3.9062178456
 H        10.5593571847        0.6783558172       -2.6286568690
 H        11.2295901058       -5.1355410867       -2.3554969538
 H         9.8143252729       -6.2948640580       -2.4806530733
 H        11.2694336052       -8.2517398353       -2.3868771854
 H        10.4929239055       -9.5836889808       -3.2044022652
 H        12.1646236758       -9.3351038678       -3.2473802309
 H        13.2123504367       -6.9232315819       -6.6647163747
 H        11.9334441708       -5.5756491080       -6.4866065345
 H        11.5510305894       -7.3420327502       -6.6959275668
 H        13.8902023371       -6.0264896843       -4.0825363829
 H        13.2758201420       -6.9686585214       -2.9280983139
 H        13.9325744914       -7.8199010113       -4.1694843041
 Na       -3.4519621340        0.0937395043        2.7690705347
