155

 C       -13.9478211783        4.2488055551       -5.3757813798
 C       -12.9477979343        3.4948069634       -4.4938270634
 C       -11.4611624369        3.8456190069       -4.4139117540
 C       -10.5783716603        2.9875277951       -3.3606329980
 C       -10.3242242870        1.4249631511       -3.7656477217
 C       -10.7453805647        3.6278303341       -5.7572044967
 C       -11.3122697634        5.3230653441       -3.9340814281
 O       -13.3742361946        2.8189990655       -3.5592676548
 O       -10.2268069933        3.5115586708       -2.3746994351
 C       -10.2089734609        0.4549211415       -2.5949663082
 C        -9.1461009794        0.9258262261       -1.5211862432
 C        -7.5605485006        1.0657523993       -2.0357488488
 C        -6.8860121614        0.6679772351       -0.6271482420
 C        -7.0352441845       -0.9043710406       -0.2309714143
 O        -9.4630136320        0.6046285650       -0.3605296328
 O        -6.3231666678        1.5019978872        0.0860404018
 C        -7.1766109349        0.1080408597       -3.1874470156
 C        -7.2141359058        2.4950640879       -2.4765829056
 C        -7.3251532409       -1.2407433053        1.3178205541
 C        -6.4752765456       -0.3697622665        2.3781892197
 C        -7.1700229534        0.7108730697        3.3950520105
 C        -6.3257201201        1.8978926709        3.5765929369
 C        -7.0696346191        3.2671115749        3.3556320252
 C        -8.6685927273        0.8931812169        3.0744949188
 C        -7.1801520044       -0.1909169208        4.6693025945
 O        -5.2790755126       -0.5990228265        2.4896638470
 O        -5.2121691475        1.8005686213        4.0579313103
 C        -6.3122731695        4.6237845393        3.6485103820
 C        -4.7626198480        4.5434261881        3.4992180844
 C        -4.0023147698        4.4237280368        2.1214686559
 C        -3.1799705542        3.1618401874        2.1651255221
 C        -1.7347316999        3.0987248778        3.0155231846
 O        -4.1478308677        4.5651913198        4.5306246115
 O        -3.5061280657        2.2828790350        1.3955457523
 C        -4.9681276460        4.3196337469        0.8789062732
 C        -3.1650010477        5.7190080085        1.9425111712
 C        -0.7390680700        2.1346908515        2.3726151378
 C        -0.3715820417        0.8439873064        3.0883810290
 C         1.0860030293        0.5321718301        3.4442128827
 C         1.9908521986        0.2695643918        2.2410954386
 C         3.2457885727       -0.7204623267        2.4087615367
 C         1.6646524202        1.6299129638        4.3813488282
 C         1.0444698193       -0.8304483542        4.2148830830
 O        -1.2526730693        0.0473870924        3.3612480423
 O         1.8607385122        0.9861582521        1.2586068466
 C         4.5028723056        0.0725013239        2.7272367074
 C         5.6299793400       -1.0330116843        2.9661552334
 C         7.0628283673       -0.6072296058        3.0696670675
 C         7.4339567326        0.2980669466        1.7549850348
 C         7.7279131855       -0.3293857735        0.4397113334
 O         5.2808404491       -2.1995925518        3.0524914470
 O         7.2288089214        1.4867146986        1.7864779512
 C         7.2247671226        0.1337918382        4.3661001097
 C         7.7742260747       -1.9413179726        3.2658138909
 C         9.1871273703       -0.4317195879        0.0047943400
 C         9.4996478387       -1.7222211806       -0.9542467846
 C        10.2326946663       -1.4921248490       -2.3913276173
 C        10.7596441768       -2.8669476005       -3.0129671029
 C         9.8206701257       -3.9457570087       -3.2480458120
 C         9.2362713490       -0.7156791893       -3.2362278161
 C        11.4293248092       -0.5967927869       -2.1823187126
 O         8.9627588746       -2.7598430997       -0.6673261249
 O        11.9370914016       -2.8929922882       -3.0016385764
 C        10.4848917465       -5.3554006837       -3.2179396591
 C        10.4505761008       -6.1840416691       -4.6050397695
 C        11.5424438544       -7.0954686038       -5.3213779744
 C        10.9700408720       -8.4606404887       -5.2473775727
 C        11.5749724277       -9.4597284493       -4.1652163059
 O         9.4123503054       -6.1791381044       -5.1424645375
 O        10.1213687580       -8.8471752271       -6.0595057374
 C        11.4312280394       -6.6435513164       -6.8715551965
 C        12.8944037610       -6.9406106273       -4.7910953455
 H       -13.8284045288        4.1087674567       -6.5806134741
 H       -15.0003815338        3.9817188796       -4.9943603323
 H       -13.8443845392        5.3684792307       -5.3576501961
 H       -11.0318522184        1.0356651673       -4.5038451641
 H        -9.3701790666        1.2021770255       -4.3651373759
 H       -10.0743472031        4.3965714747       -5.9713948198
 H       -11.4038772469        3.7304125615       -6.6209744935
 H       -10.3647663921        2.7189363097       -5.9227211648
 H       -11.5704329097        5.8884521282       -4.7891795876
 H       -12.0379407801        5.5193258978       -3.2133875346
 H       -10.3346416064        5.5998542240       -3.5677495633
 H       -10.9960461594        0.4809678916       -1.9173019602
 H       -10.0517290051       -0.5256558551       -2.8055874833
 H        -7.9437018943       -1.1086238155       -0.7409050270
 H        -6.2018474784       -1.5706440465       -0.4843789067
 H        -7.6299386811        0.4749174560       -4.1120758683
 H        -7.7522549366       -0.8355354236       -3.0188091472
 H        -6.2240206955       -0.0950441394       -3.6210821654
 H        -6.2366660821        2.8425819161       -2.2264490939
 H        -7.4810763040        2.7246656698       -3.5461969115
 H        -7.8078040415        3.2103030852       -2.0054150366
 H        -7.0101769670       -2.1507545906        1.6242994048
 H        -8.4324147780       -1.1478637614        1.5190918596
 H        -7.3753321508        3.3469414604        2.3009796073
 H        -8.0395886384        3.2570548423        3.8633592968
 H        -8.9038920122        1.3850648650        2.2151883281
 H        -9.1618468386        1.5372355943        3.8771759368
 H        -8.9106769983       -0.1263951023        2.9255963386
 H        -6.4900735900        0.1863850356        5.3735668494
 H        -8.1820068829       -0.2148010273        5.1107573719
 H        -6.8243373818       -1.1414340656        4.3857583112
 H        -6.8249664223        5.4953218741        3.0724364590
 H        -6.3606464680        4.6972249283        4.7941820029
 H        -1.4127392177        4.0821586736        2.9766855914
 H        -2.0253732990        2.8570283523        4.0893632700
 H        -5.7378811715        3.5353101706        0.9814796520
 H        -4.3031804427        4.2331632928        0.0254916731
 H        -5.5459038166        5.2907240235        0.6642066046
 H        -2.4756028099        5.8342469711        2.7844481438
 H        -2.6022464241        5.6653690068        1.0133790690
 H        -3.8219852960        6.6285609493        1.8815158536
 H         0.1878033708        2.7225941345        2.2499544655
 H        -1.1707465317        1.8175664647        1.2890380934
 H         3.1714955955       -1.4848264884        3.1992243869
 H         3.5715604214       -1.2477205293        1.4156786951
 H         1.2378859376        1.4601848131        5.3747093334
 H         1.3307960465        2.5272268054        3.9958287151
 H         2.7178028045        1.4848969251        4.6560984419
 H         0.1760550400       -1.0550755653        4.7277977657
 H         1.2470727887       -1.6479364496        3.5683022079
 H         1.9162358860       -0.8160473771        4.8197489332
 H         4.6786233151        0.7148452134        1.9034579471
 H         4.3515760352        0.6698862180        3.6354669651
 H         7.1514109044       -1.3316764085        0.2422554592
 H         7.3639845425        0.2829904393       -0.3866203870
 H         7.6258466654        1.1497174691        4.1385844361
 H         8.0091875293       -0.3679975671        4.7999191799
 H         6.1952203382        0.1886795883        4.8433568431
 H         8.8976004050       -1.7850124353        3.3474038767
 H         7.3892525391       -2.4003930514        4.1937047205
 H         7.6059459544       -2.7153403682        2.4777093812
 H         9.8922569194       -0.7949427357        0.7687930594
 H         9.3832977547        0.5110418016       -0.3998472627
 H         8.9275498861       -3.9155518122       -2.5983503249
 H         9.3333243371       -3.6338353474       -4.2316930212
 H         9.4486001951       -0.4270540086       -4.3638439613
 H         9.0579029708        0.2865280799       -2.7739871604
 H         8.4286272948       -1.4185989353       -3.2378099426
 H        12.1288668740       -0.7720667503       -1.4086523241
 H        12.0465679154       -0.5912976923       -3.0779193997
 H        11.1459844778        0.4758983723       -2.0313025011
 H        11.3476916383       -5.3097298689       -2.6659659326
 H         9.9122650270       -6.0564074425       -2.6382087405
 H        11.6836636455       -9.0744502039       -3.1309471907
 H        10.8117560925      -10.1432424699       -3.9489296559
 H        12.4792031656       -9.9107937223       -4.4777487276
 H        10.4712091930       -6.0939272055       -6.8992505257
 H        11.3488085882       -7.5099170045       -7.5130582686
 H        12.2557333199       -6.0190581896       -7.0352803373
 H        13.2734078168       -5.9466473273       -4.5245190600
 H        12.8813125865       -7.4148361024       -3.8075663182
 H        13.7995091994       -7.3663182510       -5.2640809913
 Na       -3.4046772339        0.6249444046        2.9936366899
