155

 C       -13.7657241669        2.7498599025       -5.6238221535
 C       -13.3292999121        3.1402221898       -4.2276373164
 C       -11.9541705005        3.9095606135       -4.0181993921
 C       -10.8835542290        3.1701839080       -3.1521559507
 C       -10.5929595386        1.7043697243       -3.5415971504
 C       -11.1181058850        4.2380401758       -5.4292332128
 C       -12.4077270437        5.2560764285       -3.4002571148
 O       -14.0637576906        2.9887373363       -3.2102198081
 O       -10.2899856172        3.5662713486       -2.1933846849
 C       -10.8380044677        0.7398286852       -2.3210362358
 C        -9.6941425378        1.1580768845       -1.2946527517
 C        -7.9610160958        0.8065929068       -1.5701423511
 C        -7.4187611911        0.2712290141       -0.2027977239
 C        -7.4197478233       -1.2058818432        0.0774207740
 O        -9.9881557875        1.6857586531       -0.2534128698
 O        -7.1507153070        1.0760125523        0.6905102924
 C        -7.7033917218       -0.2062962062       -2.6001938815
 C        -7.3169639563        2.2299736100       -1.7123562623
 C        -7.1893179987       -1.4757686320        1.7427445742
 C        -6.3547265348       -0.2613883734        2.3391896753
 C        -6.9263860191        0.7736409546        3.4517050843
 C        -5.9508845446        1.9999633308        3.4340711314
 C        -6.2004322233        3.1693108640        2.5167485457
 C        -8.4665904820        1.1953558356        3.2584700092
 C        -6.8129533274        0.0255970917        4.8245462412
 O        -5.1817731311       -0.3051053134        2.2301341708
 O        -5.0410357848        2.0449966761        4.3101468072
 C        -5.5910265219        4.4537037946        3.4051364950
 C        -4.0874857443        4.9486631677        3.1890962997
 C        -3.4339239553        4.7840359837        1.7038566884
 C        -2.6610264449        3.4241673331        1.8652507658
 C        -1.4803920816        3.3216872073        2.8461900573
 O        -3.4110677768        5.3219278794        4.1206668584
 O        -2.9915489198        2.4111120065        1.3276313512
 C        -4.3851098413        4.7836668619        0.5152687499
 C        -2.3762989043        5.9548558346        1.5650732078
 C        -0.4454219483        2.2316386620        2.3412034425
 C        -0.3475035168        0.8226522244        3.2557629767
 C         1.0051320398        0.2915113406        3.6542128122
 C         1.9061315240        0.1166208157        2.2845360580
 C         3.0407524466       -0.9493143764        2.2232439817
 C         1.6372491919        1.4084658158        4.5660471731
 C         0.9449202756       -1.1238732522        4.3772569190
 O        -1.3070857034        0.1752403664        3.6202655573
 O         1.7852456179        0.7661291397        1.2466622590
 C         4.2782286685       -0.0404067567        2.6664417706
 C         5.5642320039       -0.9495358785        2.6944483679
 C         6.8328070958       -0.2853134028        3.1197135711
 C         7.7536685596       -0.0478296955        1.8490776370
 C         8.0041898736       -1.3148432037        0.9177846020
 O         5.5744596356       -2.1384554572        2.4228008201
 O         8.3431298791        1.0390517280        1.7246744490
 C         6.5932278796        1.2028854765        3.7765009365
 C         7.5377952230       -1.2532188517        4.1235107119
 C         9.1757748634       -0.9657432026       -0.1538548396
 C         9.3188732721       -1.9296351217       -1.2268661081
 C        10.4576746892       -1.5078410996       -2.4214411201
 C        11.0954102978       -2.8756723272       -2.8255171701
 C        10.3163987886       -4.0370083519       -3.4461214129
 C         9.6120740452       -0.7402960367       -3.5028507837
 C        11.5292829649       -0.6073693111       -1.6507066390
 O         8.5745896633       -2.8604733497       -1.4228621533
 O        12.2780579164       -3.0758025799       -2.4423667032
 C        11.2532171500       -5.0171007347       -4.2471948857
 C        10.3841139259       -6.2029442885       -4.7184450136
 C        11.1797471200       -7.2113152470       -5.7451230177
 C        10.6634104822       -8.7110333403       -5.7260333493
 C        11.0341295861       -9.6607687668       -4.5316564443
 O         9.2282217646       -6.3362022696       -4.3706421629
 O        10.0143345665       -9.3305573550       -6.6009572075
 C        10.6360843234       -6.6059140364       -7.0879428830
 C        12.6998575228       -7.1358328992       -5.7223651718
 H       -13.0410243795        1.9171829231       -6.0027293792
 H       -14.8367397576        2.4748761525       -5.6175729484
 H       -13.8642114195        3.5854969864       -6.2686666633
 H       -11.0020558714        1.3515860527       -4.4601603058
 H        -9.6064539543        1.6081941529       -3.9511180737
 H       -11.0706215289        3.3659611903       -6.1355598803
 H       -10.2570593025        4.8904299326       -5.2756020803
 H       -11.7727451419        4.9344728456       -5.9483410729
 H       -12.8210311779        5.7992343491       -4.1795493376
 H       -13.1930089148        4.9008950526       -2.8147577757
 H       -11.6185954741        5.7567718240       -2.8105813309
 H       -11.6781686702        1.1227484112       -1.7010318461
 H       -10.8174593034       -0.4054868130       -2.5030524472
 H        -8.2789889974       -1.7881596803       -0.2646154000
 H        -6.6004076328       -1.5580656158       -0.4432353854
 H        -7.8209933965        0.1605664092       -3.5865973866
 H        -8.3890233897       -1.0518919848       -2.7226597769
 H        -6.6381895553       -0.5578844252       -2.5517910081
 H        -6.2319005383        2.3575599099       -1.5504470573
 H        -7.6106143726        2.8102750666       -2.6257775617
 H        -7.8221654861        2.8969527669       -1.0969412655
 H        -6.7472948708       -2.4529715596        1.9876847355
 H        -8.2259622331       -1.4847866546        2.2471924384
 H        -5.9025378741        3.0147182865        1.4539737899
 H        -7.2888389530        3.2615778831        2.2871573792
 H        -8.5620287311        1.7326259682        2.3542992815
 H        -8.8679840588        1.6272763733        4.1406162534
 H        -9.2132807827        0.3915822404        3.2274126713
 H        -6.7958685033       -0.9547138281        4.5751364646
 H        -5.8281275882        0.3191576895        5.2788411276
 H        -7.6066052439        0.3440911971        5.4515423956
 H        -6.1119918442        5.3381327462        3.1096309267
 H        -5.7855134275        4.2339434133        4.5031642670
 H        -1.0305299107        4.3706857127        2.9221777328
 H        -1.9435637501        3.0088806146        3.7830070644
 H        -4.6335153645        3.7383034091        0.2540934256
 H        -3.9375495512        5.1393625082       -0.4658598912
 H        -5.4198284268        5.2356164555        0.6913337109
 H        -1.9546527891        6.3085096279        2.4892368158
 H        -1.6352497094        5.5518165528        0.8237457378
 H        -2.9745343417        6.8690560186        1.2960767388
 H         0.5052990338        2.7734224087        2.4117337432
 H        -0.5821744686        2.0324986023        1.3069540112
 H         2.9447523049       -1.9160473145        2.7985987452
 H         3.1743042515       -1.2968924404        1.2443605485
 H         0.8486755084        1.7828917479        5.2412247403
 H         2.1582507450        2.2115661592        3.9754783786
 H         2.4912507475        0.9486773624        5.0236199641
 H         0.2730516925       -1.1401282971        5.1474168398
 H         0.7974568439       -1.9518967995        3.7614080206
 H         1.8514057716       -1.2696409106        4.8910879194
 H         4.3956808278        0.7824187349        1.9056421031
 H         4.0517493388        0.3088404032        3.6734121396
 H         8.3571319063       -2.0315645489        1.6764421013
 H         7.1733111353       -1.6307919367        0.4113556141
 H         5.8923536879        1.1253280184        4.5598541594
 H         6.2844803159        1.8380499980        2.8813114501
 H         7.5669411088        1.6030153438        3.9989153022
 H         8.4083750447       -0.7275453613        4.5736441812
 H         6.9740349590       -1.5438250585        5.0007659491
 H         7.8288726624       -2.1223574621        3.5301646990
 H        10.0184047420       -0.6781739428        0.4345885502
 H         8.9077742113       -0.0159964900       -0.6267935435
 H         9.9674385867       -4.6420208911       -2.5866598908
 H         9.4044722136       -3.8646846414       -3.9777331377
 H        10.3462576905       -0.5167513629       -4.3189761820
 H         9.2835947490        0.3187264864       -3.0992458287
 H         8.6298437562       -1.1275426315       -3.7522440022
 H        11.9123870136       -1.1793643525       -0.7683663125
 H        12.4478503706       -0.4590438122       -2.1393264236
 H        11.1702239743        0.3941426123       -1.5163169828
 H        11.7661090756       -4.6570123397       -5.1613796828
 H        12.2005772850       -5.2396236804       -3.5956824136
 H        10.8769985939       -9.3943007585       -3.3287861727
 H        10.2322616343      -10.4092978555       -4.5842056750
 H        12.0346229701      -10.0097607587       -4.8280654056
 H        11.4301399731       -6.2242694428       -7.6930789926
 H         9.9868155029       -5.7910726914       -6.8692358774
 H        10.1519032988       -7.4846379837       -7.5441289266
 H        13.0910574108       -6.1192307221       -5.7941247982
 H        13.1482391748       -7.4578625619       -4.8247076995
 H        13.2134731879       -7.7626384015       -6.4351988027
 Na       -3.3596611306        0.7075049178        2.8741331989
