155

 C       -16.1130408800        1.3746460240       -0.9314379364
 C       -14.7272794517        1.9957036153       -0.8119814102
 C       -13.8666602012        2.5995623454       -1.9685500029
 C       -12.4834752946        1.9822983009       -1.8617957547
 C       -12.2408789596        0.6854405587       -1.1225135279
 C       -14.4216944435        2.3656551223       -3.4724776520
 C       -13.8934196908        4.1410224229       -1.5791413655
 O       -14.1935906401        1.8804126523        0.2861346153
 O       -11.3829270493        2.5633064226       -2.1515067381
 C       -11.3146497315        0.9675802373        0.0352835647
 C       -10.2741927064        2.1335327040       -0.2129382185
 C        -8.8011816964        1.9303818061       -0.6566540211
 C        -7.8998051682        1.7069540115        0.5250658823
 C        -8.4980664551        1.9825342721        1.9807241637
 O       -10.5842178537        3.2210889573        0.3431151765
 O        -6.7986919149        1.2232359029        0.4772723343
 C        -8.4399231624        0.7966046491       -1.6182950558
 C        -8.1565677757        3.2315925328       -1.4213475042
 C        -7.6770545268        1.3301330108        3.0212244058
 C        -6.1237885591        1.5341817917        3.1077936607
 C        -5.6186655424        2.5937028963        4.1376981767
 C        -4.6881321645        3.6568716788        3.3151612499
 C        -4.9204641557        5.1635391957        3.2792769805
 C        -6.7148897502        3.4619642783        4.8460369889
 C        -4.7297586882        1.8148115826        5.1318769769
 O        -5.3622109577        0.7600056974        2.5757502505
 O        -3.7715245320        3.1623541061        2.6496379920
 C        -4.0369822144        5.8516886013        2.1547734851
 C        -2.6042869049        5.4071231916        1.8427584068
 C        -2.0401277080        4.9203222966        0.4121493059
 C        -1.6220098483        3.4082979777        0.6950213106
 C        -0.4422980756        2.9291265635        1.6666665490
 O        -1.7180236925        5.5953894421        2.6693785449
 O        -2.2876030302        2.5035893437        0.2546099194
 C        -3.1671711888        4.9285175434       -0.7153511315
 C        -0.8911451602        5.6821084407       -0.1161465103
 C         0.2006045077        1.5008999105        1.2301503151
 C         0.1654926737        0.6719583025        2.5214090165
 C         1.4560830651        0.1897182369        3.0787788866
 C         2.4620295691       -0.4482407243        1.8973805703
 C         3.5700667543       -1.2484292814        2.3836088334
 C         2.1371754703        1.5370380722        3.6182565165
 C         1.3268085829       -0.8381635873        4.2328342267
 O        -0.9014570508        0.4994977916        3.1446275700
 O         2.1259785683       -0.3099129389        0.7543889336
 C         5.0350951742       -0.7855181232        1.7350770342
 C         6.0997009208       -1.8028354300        2.3725854304
 C         7.6736903810       -1.4011178503        2.3208071759
 C         7.7798968925       -1.0442094984        0.7617520364
 C         8.2301699474       -2.2206942380       -0.3018788172
 O         5.7803814729       -2.9259779962        2.7532853635
 O         7.4236038488        0.0080815353        0.3667410489
 C         7.8294597141       -0.1718022702        3.2891566003
 C         8.5532082769       -2.6299304848        2.8217159058
 C         9.6859860554       -2.1079795142       -0.6822215035
 C        10.0000486144       -2.5480707164       -2.1109940696
 C        11.4984314480       -2.5839323499       -2.4788902045
 C        11.7646980892       -3.8156288269       -3.5514924744
 C        10.7312934684       -4.8987487813       -3.7591994448
 C        11.6098365773       -1.1854352561       -3.1556940262
 C        12.5656315153       -2.8070965484       -1.3463069592
 O         9.1207051655       -2.7381136664       -2.9496356246
 O        12.8352204134       -4.0102183070       -4.1383808460
 C        11.1276528289       -6.0610939702       -4.7298411661
 C         9.9562031213       -6.9991020590       -4.8773077515
 C         9.1590521407       -6.9850843320       -6.3300876502
 C         7.8196181292       -7.8030512434       -6.2524544732
 C         7.9239176892       -9.3914248861       -6.1754260926
 O         9.3468274294       -7.4062159017       -3.8782701369
 O         6.6550380695       -7.2630313517       -6.4307450028
 C         8.9669689896       -5.4140931238       -6.7269569353
 C        10.2484709088       -7.5303040317       -7.2425183233
 H       -16.6167794886        1.1337373105       -1.8050767070
 H       -16.0259126830        0.3932845868       -0.4599165802
 H       -16.8527926595        1.7537806323       -0.0989846555
 H       -13.2298384110        0.3232156761       -0.7180542078
 H       -11.7766149132       -0.0929229514       -1.7614316239
 H       -15.3237253474        1.8126807828       -3.6037662858
 H       -13.7683417348        1.8048682285       -4.1464939693
 H       -14.6343416588        3.2103849616       -4.0120973654
 H       -14.9668748244        4.4839543065       -1.5450508899
 H       -13.4925009023        4.4750168694       -0.6017681633
 H       -13.1831866643        4.6688353989       -2.3143761614
 H       -11.9157712141        1.3422646879        0.9535742910
 H       -10.9016439084       -0.0178821448        0.3835266965
 H        -8.3657946020        3.0232511861        2.1420450747
 H        -9.5007701598        1.7130960036        2.1108553953
 H        -8.7026907619        1.0570758212       -2.5588523513
 H        -8.8209632610       -0.0562328132       -1.0395044623
 H        -7.3678138021        0.7494331000       -1.5334033810
 H        -7.3588486124        3.4656176556       -0.8354765516
 H        -7.9961969667        3.1754362791       -2.4001501572
 H        -8.7820990861        4.0999009245       -1.2303539672
 H        -7.8829236973        0.2274839335        2.9705050994
 H        -8.1262343255        1.6676738052        4.0198069833
 H        -6.0090934150        5.3457672505        3.0225640280
 H        -4.6122612559        5.4631212107        4.3558354539
 H        -7.3441043180        3.7356768712        4.0430021369
 H        -6.2679382819        4.2118400604        5.4464147162
 H        -7.5584074179        3.0070407462        5.4405852405
 H        -3.6881587985        2.0644827301        5.2052691767
 H        -5.0938829301        1.6889660175        6.1481423866
 H        -4.7563585726        0.7825576166        4.9416333615
 H        -4.5700217334        5.6968296517        1.2685036434
 H        -4.0922703768        6.9146163514        2.2379507175
 H         0.2800389383        3.6926407628        1.5726926339
 H        -0.8350439441        3.0480793072        2.7395042123
 H        -3.6795088431        5.8213708554       -0.6501187407
 H        -3.9284852838        4.2009921106       -0.6374150116
 H        -2.7132743908        4.7659858161       -1.6625317197
 H        -1.1508424876        6.7414475085       -0.2932889948
 H        -0.0421488535        5.5809612974        0.6328620843
 H        -0.5822620099        5.2622865177       -1.0764638021
 H         1.1884854304        1.6880927549        0.9446828331
 H        -0.4124555857        1.0036865440        0.3857229073
 H         3.6591888239       -1.1489849153        3.4516817183
 H         3.4938755888       -2.3022737659        2.1423502124
 H         2.6723181736        1.0989593202        4.4263866200
 H         1.3544462520        2.3186782437        3.8363951602
 H         2.7519756913        2.1465914171        3.0168559901
 H         0.4504166252       -0.6087099580        4.7809757046
 H         1.2125835131       -1.8256576197        3.8812794195
 H         2.1590747820       -0.7487588807        4.8789883494
 H         4.8963620340       -1.0602493070        0.7436849143
 H         5.3415982782        0.3012424307        1.7588765960
 H         8.0861817838       -3.2755587232       -0.1966442205
 H         7.4898666016       -1.9215127102       -1.1855005606
 H         7.3170306256       -0.1338934884        4.2464174965
 H         7.3497399395        0.7779707221        2.8514964459
 H         8.8694676943        0.1187853975        3.4911072932
 H         9.5820207926       -2.2879704302        2.8082473461
 H         8.1388158698       -2.8915221100        3.8176084282
 H         8.6019832636       -3.5752094145        2.2508477479
 H        10.4438946623       -2.5846704608       -0.0791618956
 H         9.9292746465       -1.1046589487       -0.7773160168
 H        10.2504565030       -5.2388495147       -2.7837266599
 H         9.9102403822       -4.3188609402       -4.2225680221
 H        11.4400423024       -1.3275324879       -4.2099654310
 H        12.6529803321       -0.7128168569       -3.1078817704
 H        10.8808133137       -0.5161774447       -2.8310863074
 H        12.2901425255       -3.1502537078       -0.2914933901
 H        13.3941028369       -3.2839090586       -1.6116707934
 H        13.0642353585       -1.8473975839       -1.0871287033
 H        11.7007074686       -5.5684767866       -5.4570892621
 H        11.8006922280       -6.7406997883       -4.2222793231
 H         7.9117779782       -9.7598464126       -5.1951666429
 H         7.0767313595       -9.8842311081       -6.6246049207
 H         8.8586794497       -9.9786368210       -6.5842121590
 H         8.2733618729       -5.3640560216       -7.5857598662
 H         9.9488737592       -5.1086169582       -7.1701781243
 H         8.7846491279       -4.6024982326       -6.0245432882
 H        11.1508366493       -6.9318745940       -7.2406375927
 H        10.5832259421       -8.5130407706       -6.8307238742
 H         9.7965417638       -7.7784477376       -8.1934467254
 Na       -3.0320564348        1.0801151776        2.1260662050
