155

 C       -15.9654143932        1.3269351130       -0.1304010594
 C       -14.5355282236        1.7482890953       -0.1428885252
 C       -13.9604517902        2.3322555125       -1.5124997817
 C       -12.5276942639        1.9924069613       -1.8083072105
 C       -12.0564558198        0.7969004518       -1.0042569589
 C       -14.6133485843        1.5860009762       -2.7268074375
 C       -14.4268265873        3.7509097173       -1.5121878604
 O       -14.0747594780        1.9864226631        0.9782056204
 O       -11.7499257736        2.5883207914       -2.6020601794
 C       -11.1685941928        1.2997647549        0.0354197797
 C       -10.2286413895        2.6122908413       -0.1134287116
 C        -8.5911050723        2.2992310944       -0.6478301592
 C        -7.6543485417        1.7172429638        0.6042494910
 C        -7.9192487663        2.0994651056        2.0806136447
 O       -10.5742067632        3.6494926769        0.4157373450
 O        -6.7455971429        0.9753504040        0.3338658700
 C        -8.6009456889        1.1975484714       -1.7292327316
 C        -7.9021769473        3.6145381577       -1.0358681675
 C        -7.2826566470        1.1898027516        3.1084975004
 C        -5.7543829689        1.4568568601        3.4838075945
 C        -5.3259271172        2.7363797428        4.1185018892
 C        -4.4933998721        3.6435414529        3.2361654000
 C        -4.6833217550        5.1449853953        3.2907967504
 C        -6.5403038815        3.5533061533        4.7025976818
 C        -4.2431976221        2.4845803849        5.4283498332
 O        -4.9409461859        0.7290849488        2.9807357747
 O        -3.7312003211        3.1164105924        2.4776244180
 C        -4.0933068191        5.6395930496        1.9673547389
 C        -2.6790126540        5.2063139028        1.5597629167
 C        -2.2076859126        4.8671093458        0.0906670152
 C        -1.6844460904        3.2748201391        0.2450113835
 C        -0.3412524980        3.1868126289        0.9548071439
 O        -1.8021354462        5.3169643731        2.4301413159
 O        -2.4822274698        2.4434366863        0.0008020391
 C        -3.2112195818        5.0865537066       -1.0286370659
 C        -0.9386938167        5.9525075737       -0.1239552646
 C         0.4707349864        1.7518599525        1.0771120058
 C         0.1251863711        0.8612004917        2.4009320836
 C         1.3411448625        0.2986542940        3.2134088121
 C         2.2358087363       -0.5818988487        2.3941402015
 C         3.2259278528       -1.4878201806        3.0935958543
 C         2.1991826001        1.5309498064        3.7866424504
 C         0.7541968338       -0.4306149477        4.5661254202
 O        -1.0711631382        0.6212805225        2.6778323924
 O         2.3368421654       -0.2991632055        1.2086524245
 C         4.8876432077       -0.9898065613        2.8691301052
 C         5.8790580322       -2.0496123124        2.2991094975
 C         7.4160054649       -1.5606954636        2.0386210534
 C         7.6222255463       -1.0482603821        0.5098625925
 C         8.2455248090       -2.0480664074       -0.5963752559
 O         5.7233672122       -3.2238871733        2.2012064095
 O         7.5929411208        0.1041755539        0.1757036582
 C         7.7601488694       -0.3435275341        2.9867575646
 C         8.3791463927       -2.7191981327        2.3025522229
 C         9.8348498101       -1.8899229600       -0.7289673533
 C        10.1953095677       -2.6817173951       -2.1045283905
 C        11.6050322790       -2.7388330001       -2.6300256539
 C        11.7793494808       -3.7563797244       -3.8549318329
 C        10.7860613565       -5.0058572803       -3.8079514943
 C        12.1391374310       -1.3280115200       -2.7279511272
 C        12.4488432037       -3.3639663370       -1.4838050995
 O         9.2870849609       -3.0223388808       -2.8632173878
 O        12.7080611716       -3.7201801393       -4.6893467165
 C        11.0882182342       -6.0878677090       -4.8570108772
 C         9.6848203555       -6.8573348563       -4.9651634092
 C         8.9014024369       -6.9479678952       -6.4597348253
 C         7.5571226521       -7.7646130031       -6.2968616773
 C         7.6047181850       -9.3022910400       -6.3489847564
 O         9.0445572643       -7.0386349168       -3.9757999002
 O         6.5408847458       -7.2667782328       -5.8063223252
 C         8.9844435694       -5.5988604055       -7.1799012883
 C         9.9441892825       -7.8997880075       -7.2675068099
 H       -16.7111481653        2.0461632022       -0.1788898506
 H       -16.3893268361        0.6759552153       -0.9096304242
 H       -16.0461545312        0.7783058947        0.7904286496
 H       -12.7141943377        0.0552454342       -0.5983527077
 H       -11.4186721352        0.3011098693       -1.7372134926
 H       -15.6010150049        1.8761511715       -2.8747950918
 H       -14.6040550030        0.5023962707       -2.7249937606
 H       -14.1563180921        1.7235152020       -3.6481318028
 H       -15.4157653551        3.9385999144       -2.0987440978
 H       -14.5398188545        4.2216944116       -0.5093383035
 H       -13.7346258942        4.3751889127       -2.0673523870
 H       -11.8339056557        1.6277892274        0.8173349485
 H       -10.5186289104        0.5574767154        0.4235369758
 H        -7.8503727802        3.1590702775        2.3348336395
 H        -8.9896111323        1.8875642442        2.1832829283
 H        -9.3073285206        1.6747110815       -2.3393754201
 H        -9.0031684538        0.2564677730       -1.3168921641
 H        -7.6791901369        1.3575485886       -2.2029066914
 H        -7.1065212515        3.4863755030       -1.7521521634
 H        -8.6618260275        4.2673177908       -1.4701774218
 H        -7.4711602087        4.1699772151       -0.1500014561
 H        -7.3665499778        0.1557861101        2.8538458456
 H        -7.9763246434        1.5162684753        4.0059542906
 H        -5.7651411147        5.4183333153        3.3581935010
 H        -4.0895793118        5.6621988998        4.1433395274
 H        -7.1574353645        4.0142587286        3.9523731077
 H        -6.0506759663        4.4218094920        5.1240689685
 H        -7.1125389695        3.0521217370        5.5506308936
 H        -4.1001599196        1.4379242795        5.7821644700
 H        -3.2350477855        2.7710045920        5.3553976791
 H        -4.5204141238        3.1611198775        6.2666182279
 H        -4.7397718659        5.5639206322        1.1875869570
 H        -4.0589512488        6.7186533607        2.1078964337
 H         0.3014511816        3.8625434691        0.4492063821
 H        -0.5828093487        3.6987889123        1.9896411810
 H        -3.3657375001        6.0993899546       -1.4085950759
 H        -4.1348598689        4.7196820422       -0.6659092204
 H        -2.9147328664        4.5436203762       -1.9399652960
 H        -1.4625847807        6.8786082778       -0.0337004652
 H        -0.0207023957        6.0108092736        0.5381950542
 H        -0.6429322523        5.7414064605       -1.1320147332
 H         1.4493630578        2.0830021667        1.0545976095
 H         0.2103111754        0.9753293899        0.2024128828
 H         3.1583615303       -1.4677156115        4.1678064768
 H         3.2813037076       -2.5291555623        2.8495099400
 H         2.8177158761        1.1159892382        4.6049471428
 H         1.4536530494        2.3801719818        4.1998583232
 H         2.9203813076        1.8955414482        3.0539830536
 H         0.3019798348        0.2838711015        5.1995885809
 H         0.1014562014       -1.2800455667        4.3619135846
 H         1.5696825444       -0.8052829341        5.1582072037
 H         4.9847302014       -0.0381768594        2.4291312217
 H         5.1542034128       -0.8918037766        3.9995482376
 H         7.8680705019       -3.1027435697       -0.3078485976
 H         7.8360551632       -1.9108535604       -1.6451313836
 H         7.8922241090       -0.5383996457        4.1059188620
 H         6.9326692147        0.3921052582        2.9907704793
 H         8.7802072276        0.1158207580        2.8681866479
 H         9.4402875810       -2.5568853048        2.0778526354
 H         8.3994271739       -2.9020426300        3.4329145461
 H         7.9875484647       -3.6366699890        1.8330262152
 H        10.3151447593       -2.3844965333        0.1781085077
 H        10.1365881484       -0.8877814393       -0.7416505482
 H        10.4058917633       -5.4708075589       -2.8764992746
 H         9.9171201191       -4.4991194776       -4.1760072562
 H        11.7425603427       -0.6945859283       -1.9572995886
 H        11.8807074502       -0.8950634867       -3.7222556164
 H        13.1761655108       -1.2850959383       -2.7136088766
 H        13.4072460617       -3.8784719241       -1.6986095186
 H        12.7448954351       -2.6731293405       -0.6879257637
 H        11.8470452404       -4.0983403265       -0.8777465690
 H        11.6226741578       -5.8645618773       -5.7468779999
 H        11.8725383159       -6.7126058647       -4.2952405461
 H         6.6223680810       -9.6720071287       -6.3978497471
 H         7.9488041551       -9.7225515668       -7.4058001643
 H         8.2411916326       -9.7394507097       -5.6014936945
 H         8.9817301448       -5.6225534657       -8.2508644540
 H         9.8775248132       -5.1938289272       -6.7807122111
 H         8.4283711602       -4.8150269653       -6.6959868813
 H        10.8399645142       -7.3267385480       -7.4022355241
 H        10.0608167709       -8.8627718237       -6.7011238824
 H         9.6478854730       -8.2386370594       -8.2665874374
 Na       -3.0908198237        0.8699767082        1.6510843216
