155

 C       -15.8506529231        1.3256901615        0.8376220435
 C       -14.4571341045        1.7622094091        0.3485047621
 C       -14.2472704361        2.0026019036       -1.2448563838
 C       -12.6908790588        1.9804310599       -1.6637133377
 C       -11.8455968345        0.8869036443       -0.8011223838
 C       -14.9887132332        0.9645552992       -2.0692836936
 C       -14.9090033784        3.3711567933       -1.6877678443
 O       -13.5752006761        1.9695147691        1.1776454916
 O       -12.2182007638        2.7337020290       -2.4229003598
 C       -10.8951467045        1.3681193864        0.2068810463
 C        -9.9229356509        2.8021942264        0.0940334728
 C        -8.3275861359        2.5303039842       -0.3338409807
 C        -7.5438012173        1.7001697132        0.6352235555
 C        -7.3629563559        2.1841224669        2.0944513142
 O       -10.1997317979        3.8543954346        0.5130703958
 O        -7.0383074694        0.6056886049        0.2886516435
 C        -8.4532387102        1.8197765007       -1.7255163801
 C        -7.6466549311        3.9863240934       -0.5576415755
 C        -6.9700410995        1.1492474994        3.1876935702
 C        -5.4705977013        1.4534247537        3.5669010114
 C        -5.0312210194        2.7911453241        4.2584804105
 C        -4.4846675648        3.6704854763        2.9961977150
 C        -4.8014779365        5.1334622941        2.8661274083
 C        -6.2591879075        3.6378995009        4.7866933843
 C        -3.9685450258        2.5951349343        5.1597838018
 O        -4.6273673208        0.6511386718        3.1384225863
 O        -3.6740550924        3.2374610535        2.2391795488
 C        -3.9728439792        5.7264894997        1.6916215646
 C        -2.5222147463        5.1857534236        1.5785695678
 C        -1.9543685352        4.6856561823        0.1540521597
 C        -1.2478481881        3.2339396875        0.2319570558
 C         0.2059254519        3.1586974508        1.0026831932
 O        -1.6635192160        5.3161687183        2.4175944840
 O        -1.7507842935        2.2202538569       -0.1395532028
 C        -3.1339648002        4.3671333564       -0.9275098012
 C        -1.0106093178        5.7024679040       -0.5127565899
 C         0.6254897600        1.5898164671        0.8284572565
 C         0.1895492183        0.8231207760        2.0829889107
 C         1.2847543319        0.5063329835        3.1524018539
 C         2.4066740853       -0.4051831511        2.3946749006
 C         3.3455566254       -1.0429117420        3.3798441813
 C         2.0139182826        1.7991627507        3.5674795962
 C         0.8098710411       -0.3131913917        4.3259826065
 O        -1.0002210557        0.5882861177        2.3146059371
 O         2.5018253843       -0.4981506726        1.1875827788
 C         4.9018964200       -0.9979819415        3.1845781253
 C         5.4670713418       -1.7461838379        2.0278886756
 C         7.1001231174       -1.5544260031        2.0056362352
 C         7.4097674592       -1.1349425563        0.5193648242
 C         8.0748871874       -2.0368255111       -0.4730656390
 O         4.9767950605       -2.5474354626        1.2705816409
 O         7.1286783477        0.0386310153        0.1949827258
 C         7.7083467037       -0.5637892036        3.0049352885
 C         7.6282754200       -2.9557050227        2.4158018489
 C         9.7117818530       -1.8275620349       -0.5969366434
 C        10.1116852956       -2.3630780404       -2.1998691474
 C        11.5636393676       -2.8592472610       -2.4321230309
 C        11.4097371078       -3.7364387481       -3.7674461659
 C        10.8242272351       -5.2669438762       -3.7030406687
 C        12.5754896136       -1.6593359118       -2.5534442239
 C        11.9956147516       -3.7804230440       -1.2212066734
 O         9.3472540024       -2.4137022566       -3.1481544150
 O        11.8781532964       -3.4721075378       -4.8479203154
 C        10.6910997252       -5.8050566328       -5.1015933013
 C         9.5676623186       -6.8605589595       -5.1076409945
 C         8.8355430327       -7.2737159566       -6.6417174586
 C         7.4878697020       -7.8709866646       -6.2371508760
 C         7.0291054663       -9.2029515836       -6.4041591516
 O         9.2019442190       -7.4268545920       -4.1725308428
 O         6.6210554087       -7.0653122204       -5.8386877668
 C         8.6761315466       -5.9336826795       -7.4588337064
 C         9.9422157563       -8.0864437530       -7.3317202470
 H       -16.1790883827        0.9404290603        1.8324507086
 H       -16.4836001659        2.1972484808        0.5935439147
 H       -16.2033782736        0.7002042986        0.1727296948
 H       -12.4312778882        0.1560738214       -0.3720318198
 H       -11.2322228652        0.3338681600       -1.4424290892
 H       -16.0433798524        0.7323872990       -1.7981084645
 H       -14.4238254746       -0.0019628436       -2.0431758060
 H       -15.0524862742        1.1193177907       -3.1755875127
 H       -15.8413023113        3.5972255570       -1.1945150282
 H       -14.2492255846        4.2010436511       -1.6299878063
 H       -15.3005428938        3.2928514611       -2.6094247649
 H       -11.4291778655        1.6774300509        1.0403581876
 H       -10.2638739261        0.5930411051        0.4969272733
 H        -6.5421250753        2.9695792915        2.1169590811
 H        -8.2204677681        2.8651153462        2.3791186592
 H        -9.2438328018        2.3035289493       -2.3011109540
 H        -8.8855895226        0.8729637897       -1.4118423818
 H        -7.4158509768        1.7244404819       -2.0444518948
 H        -7.7922490113        4.5005476886       -1.5562595890
 H        -7.9243236509        4.7387283979        0.2998273261
 H        -6.5965773413        3.9220717004       -0.2206918043
 H        -7.0615162966        0.1819670347        2.8443201085
 H        -7.6498385498        1.3879158301        4.0911254268
 H        -5.8349283733        5.4018068252        2.7815420050
 H        -4.5263730704        5.5490667986        3.8630230396
 H        -7.0120107523        3.8908071709        4.1008422834
 H        -5.9245678436        4.6550512090        4.9953099591
 H        -6.5398762346        3.1965069154        5.7265988447
 H        -3.4791017745        3.5844032150        5.4962463334
 H        -4.1924424524        2.0857718490        6.0581173130
 H        -3.1153971191        2.0054285417        4.7019181103
 H        -4.5264271046        5.5460567516        0.8313039101
 H        -3.8411235554        6.8268189365        1.8010167790
 H         0.8497532203        3.6749921203        0.3619291780
 H         0.2815573384        3.5277512883        2.0791257521
 H        -3.7440474838        5.2226063487       -1.3982178700
 H        -3.7099821445        3.4931953079       -0.5557616859
 H        -2.6588699484        4.0327636884       -1.9056944987
 H        -1.5495350448        6.2638053229       -1.2050144125
 H        -0.6238580594        6.4126991228        0.2320329000
 H        -0.2038759638        5.0883263970       -0.9101570173
 H         1.7014858495        1.5558694094        0.7539060539
 H         0.1382877969        1.2974983462       -0.1920165520
 H         3.0936045024       -0.5304955297        4.2961587860
 H         2.9640098149       -2.0476510562        3.5603232466
 H         2.7757274399        1.6501623600        4.3197567315
 H         1.2662869351        2.2361174460        4.2240686462
 H         2.4912539303        2.2892176748        2.7327185050
 H        -0.1183608980        0.2126645544        4.6839232811
 H         0.5222769272       -1.3935143207        4.0937687923
 H         1.4115375577       -0.3786571273        5.2856329042
 H         5.1805789686        0.0229151698        3.3818869915
 H         5.4068529870       -1.6613360843        4.0287762409
 H         7.7120167622       -3.1498220577       -0.1298727106
 H         7.7278733120       -1.9096624188       -1.4899885017
 H         7.3713840598       -0.6656953681        4.0883594898
 H         7.5140292151        0.4519830463        2.7296081167
 H         8.8548493034       -0.4730700418        2.9349857288
 H         8.6262368743       -3.0310291462        2.1501353281
 H         7.7438526475       -2.9884439929        3.4871810079
 H         7.1064612315       -3.7593524004        1.9962524241
 H         9.9483994802       -2.4829619096        0.3111135027
 H        10.2238545228       -0.8919988958       -0.4030038329
 H        11.3136298930       -6.0167219656       -3.1085775718
 H         9.8048914129       -5.1982049246       -3.3470596192
 H        13.4466651026       -1.9641309652       -3.2194961857
 H        13.0175420648       -1.4341635541       -1.5906708260
 H        12.1275224253       -0.7297510374       -2.8861342708
 H        11.4824350866       -3.5015157426       -0.3439347705
 H        11.8340344346       -4.9513459108       -1.2378201847
 H        13.0182572202       -3.7679946751       -0.9980243256
 H        10.5848402847       -5.1087711330       -5.9547551092
 H        11.5737032263       -6.4351793353       -5.5122817437
 H         6.5525631279       -9.3033065252       -7.4787755006
 H         7.8762128034       -9.8834627435       -6.6136952191
 H         6.5484198658       -9.6309046837       -5.6311033232
 H         8.2264216461       -6.0776747617       -8.4292990936
 H         9.6720737465       -5.6552598722       -7.8030245656
 H         8.1748327897       -5.1129162691       -6.8367179859
 H        10.6668387724       -7.5464652044       -7.9017746217
 H        10.3108769314       -8.8938583887       -6.6393886414
 H         9.4383230434       -8.6565436755       -8.1122046256
 Na       -3.0235739468        1.2145724376        1.5938494229
