155

 C       -15.4467643036        2.0007371284        2.0673064067
 C       -14.1409643481        1.8795923246        1.2453623596
 C       -14.2095566478        1.3357117945       -0.3151085971
 C       -12.9422871910        2.1068359277       -0.8198111431
 C       -11.5541069403        1.5248316281       -1.1676180442
 C       -14.1866813617       -0.2474081415       -0.4411426694
 C       -15.4903325523        1.7438078941       -1.0493040771
 O       -13.0960770829        2.1800824583        1.8343849232
 O       -13.0344261806        3.3363446732       -0.8363266405
 C       -10.5360396269        1.4727474656       -0.0966335859
 C        -9.6762420753        2.7055339914        0.1397325379
 C        -8.1358790231        2.7143640789       -0.2136993389
 C        -7.4472641967        1.9249930599        0.7880391286
 C        -7.1995010629        2.6081525847        2.2398508075
 O       -10.3057398456        3.7009079809        0.3524198371
 O        -7.6123484287        0.6894366799        0.9099049485
 C        -8.0552340601        2.1451778194       -1.6851773118
 C        -7.6357909056        4.2233925215       -0.1610677600
 C        -6.8348288338        1.5594427813        3.3039892654
 C        -5.3377555830        1.5002072304        3.3552291873
 C        -4.4971195293        2.8507913505        3.7588125833
 C        -4.1591696496        3.6337674737        2.4819507420
 C        -4.3137701257        5.1642024640        2.6187846650
 C        -5.2769483605        3.7573639350        4.7601417924
 C        -3.0913178614        2.3401000252        4.3533458736
 O        -4.6835651312        0.5440591018        2.8323181893
 O        -3.6529232591        3.1008185934        1.5050995823
 C        -3.5097834691        5.8114376160        1.4551123059
 C        -2.0835905173        5.2078802618        1.1287578437
 C        -1.7042611179        4.5500717710       -0.3049663025
 C        -1.0130920091        3.1289647699       -0.2043894657
 C         0.3683194189        3.1539679760        0.3434387914
 O        -1.2140001814        5.3545179356        1.9612869492
 O        -1.5561056794        2.0757861594       -0.3702030600
 C        -2.9514692562        4.3301409046       -1.2670711657
 C        -0.8313810259        5.6863505784       -1.0121590447
 C         0.8881589848        1.6974638515        0.7789683491
 C         0.4268254314        1.1908306806        2.1412094562
 C         1.3510598221        0.7967838835        3.3879916728
 C         2.4956399307       -0.0900381993        2.7467418188
 C         3.3631725653       -0.9378195409        3.7148945654
 C         1.9171522137        2.2090711216        3.8872628243
 C         0.5686617382        0.0541238967        4.5022972718
 O        -0.7576191123        0.8527191708        2.2481433910
 O         2.3560369138       -0.3647836434        1.5946224027
 C         4.8868859802       -0.8296985025        3.3316853933
 C         5.3135127073       -1.4290561677        2.0083117138
 C         6.9264047395       -1.7449101816        1.8310768853
 C         7.4239997822       -1.0121893672        0.5098728661
 C         7.7847780144       -1.7034101957       -0.7317910163
 O         4.5115072985       -1.5543980807        1.1060013385
 O         7.3139782216        0.2251876032        0.5773751530
 C         7.7734471542       -1.2861403803        2.9511712993
 C         7.1842302049       -3.3064893883        1.6126740129
 C         9.3523777604       -1.5638072128       -1.0473365694
 C         9.6059102881       -2.3893565654       -2.3622144914
 C        10.8478568089       -3.3255093086       -2.3403534278
 C        11.0353619768       -3.8571702360       -3.8556313378
 C        10.4502398394       -5.2963944465       -4.1873487526
 C        12.1939418624       -2.7200565225       -1.8773224817
 C        10.6362912844       -4.4397903771       -1.2041359949
 O         9.0581628493       -2.1582343827       -3.3902468774
 O        11.6620762293       -3.3637947902       -4.7633953957
 C         9.3066556090       -5.5068466433       -5.0890467041
 C         9.4049195008       -7.0093162239       -5.6464081974
 C         8.4792174419       -7.5018663942       -6.9974773362
 C         7.1415118527       -7.7298390175       -6.3551547553
 C         6.6507762281       -9.1036401957       -6.0261235935
 O        10.0717574387       -7.7705200996       -4.9850909420
 O         6.6076592646       -6.6937662505       -5.8705388024
 C         8.8313615987       -6.3865161714       -8.0453674896
 C         9.2675089014       -8.7597396969       -7.4182700062
 H       -16.1913018349        2.6709499848        1.8691609764
 H       -15.8595500212        1.0952465372        2.2205857267
 H       -15.0892634952        2.0273660926        3.1354618852
 H       -11.8623811294        0.4799381856       -1.3715841423
 H       -11.0758932954        2.1008373865       -2.0339216418
 H       -15.1500452058       -0.6550370845       -0.0364139768
 H       -13.3429847299       -0.7437041434        0.0081860864
 H       -14.1119457004       -0.4645125631       -1.5165879237
 H       -15.1811589955        2.0137454384       -2.0450403226
 H       -16.4912523704        1.2940183218       -0.9624178086
 H       -15.7327079590        2.7730872631       -0.6485207687
 H       -11.1169729314        1.2920858182        0.8999090202
 H        -9.8947896155        0.5331154748       -0.2978322955
 H        -6.4359555486        3.3446505934        2.2358216136
 H        -8.1803762133        3.0730091222        2.4833506836
 H        -8.4880518558        2.9267900261       -2.4167114800
 H        -8.5201584055        1.2018979760       -1.5444810564
 H        -6.9490808137        1.9294993722       -1.9429332357
 H        -7.6357370682        4.7873882561       -1.0923647066
 H        -8.0149488005        4.8574557010        0.6071270601
 H        -6.6004642841        4.1866191022       -0.1979457205
 H        -7.1772010066        0.5984119855        2.9455482601
 H        -7.2397067725        1.7145680592        4.2476135758
 H        -5.2755444858        5.5867865222        2.6198724166
 H        -3.9721176038        5.5390591847        3.5694987341
 H        -6.1333762976        4.3438827250        4.3183621383
 H        -4.3866850695        4.2255893004        5.1540306882
 H        -5.7895305838        3.1354748427        5.4753163081
 H        -2.7970617555        3.1202261903        4.9833637787
 H        -3.2399374642        1.3932380110        4.9859842281
 H        -2.2712799622        2.2580925537        3.6043691162
 H        -4.2071976344        5.6533731246        0.5424981664
 H        -3.4256644778        6.8748654560        1.7454833192
 H         1.0708220643        3.7110777249       -0.1797271018
 H         0.1989967279        3.6046951970        1.3257929289
 H        -3.3720171077        5.1225536028       -1.7682791839
 H        -3.7771340414        3.8727369747       -0.7319489397
 H        -2.5608807373        3.6065849821       -1.9072588865
 H        -1.5297732117        6.4763393393       -1.3319022315
 H        -0.0884966488        6.0971489276       -0.3367963657
 H        -0.3078614424        5.3380491164       -1.9647736788
 H         2.0873979220        1.8485365947        0.7591625376
 H         0.8654041230        0.9317580833        0.0105660888
 H         3.2758559991       -0.5057501041        4.7480253370
 H         2.8464617273       -1.9025767990        3.5350639874
 H         2.9303744384        2.0741401237        4.2768652368
 H         1.2831086232        2.7567495815        4.4879672628
 H         1.8815871185        2.8407127789        3.0065947264
 H        -0.2408486159        0.6846869424        4.7391820413
 H         0.1448723607       -0.9057276294        4.4923281662
 H         1.1147016624        0.1169016325        5.3995164099
 H         5.2320807502        0.1883501750        3.3771808790
 H         5.5422135311       -1.2533571945        4.1175114911
 H         7.7213737366       -2.7539586804       -0.8430408019
 H         7.0406416375       -1.2160405373       -1.5041958437
 H         7.6611506266       -1.8276839759        3.8277173411
 H         7.5751063990       -0.2365369419        3.1340771344
 H         8.8262680532       -1.4758038478        2.7524963330
 H         8.2938556474       -3.3801388749        1.6344482058
 H         6.6696905226       -3.8644986804        2.4267297099
 H         6.6982290966       -3.7977528234        0.7473225707
 H        10.0892323575       -1.9087499299       -0.3403274782
 H         9.4798357517       -0.4404332005       -1.2682893779
 H        11.3040760615       -5.7708981432       -4.5458568580
 H        10.2117670518       -5.7754756253       -3.2046947504
 H        13.0270548311       -3.4093535819       -2.1507198703
 H        12.1703386129       -2.5246537662       -0.8551552430
 H        12.3175433721       -1.7577685482       -2.3610443834
 H        11.3249001092       -4.2062732495       -0.3345556125
 H         9.7244505853       -4.2131058537       -0.7858244033
 H        10.7472371941       -5.5154240444       -1.5050577280
 H         8.2980321390       -5.3608133058       -4.5953305644
 H         9.5706136506       -4.9141631039       -5.9903411035
 H         6.8017088346       -9.5736944747       -5.0980034485
 H         5.5800598773       -8.9434052065       -5.9762795289
 H         6.9364913131      -10.0489553476       -6.7054836786
 H         8.6326736128       -6.7535691445       -9.0411043604
 H         9.8085581995       -6.0434562924       -7.8089255284
 H         8.0788681447       -5.6000784773       -7.9219356668
 H        10.2957608539       -8.5265892001       -7.6632364882
 H         9.4303422914       -9.4073148704       -6.5223319019
 H         8.8530231517       -9.4042818076       -8.2389905687
 Na       -2.8255279548        0.8841304231        1.2739489703
