155

 C       -13.1995658029        2.7035526788        3.7069947025
 C       -12.6883467103        1.4302109751        2.9964789899
 C       -13.5936649283        0.8675544828        1.8831705157
 C       -13.3424078074        1.5923173669        0.5203291143
 C       -12.0478888012        1.4836924414       -0.3420696190
 C       -13.4183960569       -0.7056617282        1.4591227068
 C       -15.1989171748        1.2189864636        2.2443667438
 O       -11.6150452549        0.9473592428        3.2660938697
 O       -14.1402176503        2.3606066260        0.0283886169
 C       -10.6938263998        1.6295849785        0.2801234278
 C       -10.0467212458        3.0902418934        0.3820633023
 C        -8.4747680849        3.0694670569       -0.0344040256
 C        -7.6926743056        2.0369152161        0.8757205696
 C        -7.9186283876        2.3274013438        2.2989641039
 O       -10.6776626997        3.9570369606        0.9554850061
 O        -7.1354047164        1.0950042472        0.4286209406
 C        -8.4020968947        2.7294185214       -1.4927437645
 C        -7.7945712508        4.5574108129        0.0805397042
 C        -6.7766177359        1.6188602974        2.9904278833
 C        -5.3575026179        2.3811401717        2.6261498956
 C        -4.6603382337        3.5723687329        3.4622566193
 C        -3.6306259575        4.2747031160        2.4944208810
 C        -4.1956611645        5.5341450883        1.6411571132
 C        -5.6699417761        4.5460293538        3.9918474073
 C        -3.9995928869        2.9320648480        4.6809590429
 O        -4.6991169545        1.9059599017        1.6539609554
 O        -2.5271375649        3.8539095000        2.3755895790
 C        -3.5152795149        5.3297818569        0.2628024767
 C        -2.0108382629        5.6409851790        0.3280721252
 C        -1.2680049943        5.0352264788       -0.9012952333
 C        -1.1153248056        3.4136843659       -0.5287107530
 C         0.3811708293        2.7843008846       -0.1133273726
 O        -1.4722368973        6.2601461495        1.2156285320
 O        -2.1198614650        2.7523223782       -0.4450891977
 C        -2.0546891632        5.1617479276       -2.2388572577
 C         0.1246315928        5.7832420230       -1.2304990837
 C         0.3377426706        1.4051713235        0.4106482655
 C         0.7304695431        1.3426076934        1.8998632870
 C         2.1792645686        1.0216374724        2.2711439768
 C         2.6523629082       -0.4650423328        1.7014386717
 C         4.1280596743       -0.7515698112        2.1061441391
 C         3.0782320975        2.0455703142        1.6911332864
 C         2.2684081344        1.0320441276        3.8836112843
 O        -0.1858388221        1.1862798798        2.7069301179
 O         1.9065125837       -1.1309479367        0.9970692302
 C         4.7402136197       -2.1767487336        1.6479130381
 C         5.9341921900       -2.3177952637        2.5306597604
 C         7.4037282181       -2.2171790510        1.7514016855
 C         7.3136241506       -1.1953093949        0.5714229767
 C         7.2605810061       -1.6671520802       -0.8980367123
 O         5.8446404230       -2.5645474674        3.7252802241
 O         7.1202171237       -0.0048861181        0.7383139409
 C         8.3950619579       -1.5619575885        2.7385224450
 C         7.8083013165       -3.7275641073        1.5202685665
 C         8.7206179789       -2.2027395063       -1.4983863187
 C         8.6700394870       -3.6518579357       -1.9879569504
 C         9.9748690498       -4.2789074356       -2.5594609712
 C         9.7618668282       -3.8766875955       -4.0533761875
 C         8.9447287419       -4.8756100578       -4.9068146150
 C        11.2060482069       -3.6046397377       -1.9807510431
 C         9.7551186123       -5.7890325181       -2.1995322328
 O         7.7612509948       -4.3554871471       -1.6617055522
 O        10.1590717633       -2.9241564014       -4.6559295638
 C         9.8434028716       -6.0099675815       -5.3527405086
 C         9.3956942793       -7.2382015556       -6.0305963538
 C         8.1242566420       -7.2649121314       -7.0047461255
 C         6.7544974096       -6.9306810867       -6.4513588384
 C         6.3697970824       -7.5658144951       -5.1539335456
 O        10.0352381296       -8.2401069885       -5.8001211218
 O         6.1049346957       -6.2228529130       -7.1569336841
 C         8.7026056905       -6.2603648191       -8.2663201556
 C         7.8225441942       -8.7317268319       -7.7268021307
 H       -14.0902785452        2.5127474308        4.3359171786
 H       -12.4850212503        3.0377778319        4.4162801053
 H       -13.5957290825        3.5932572130        3.0370574462
 H       -11.9988113334        0.5502831635       -0.8181051466
 H       -12.1522704393        2.2321860069       -1.0162956064
 H       -14.0999963809       -1.2054537708        2.2352978569
 H       -12.3716897797       -1.0067513997        1.4871460451
 H       -14.1180891879       -0.6606326568        0.5467599757
 H       -15.9638078214        0.6056622712        1.7047888195
 H       -15.1038203044        0.9756194212        3.3362135236
 H       -15.4509081894        2.2639395168        2.2349199679
 H       -10.6401312084        1.2209088750        1.2133402238
 H       -10.1190330205        1.0853344241       -0.3980626032
 H        -8.1096966624        3.4029154290        2.5263585818
 H        -8.9704197372        1.9236041146        2.5532839413
 H        -9.0863971457        3.3618085198       -2.1318143616
 H        -8.5177754737        1.6158960375       -1.5819479102
 H        -7.4180135708        2.9865385275       -1.9346290815
 H        -8.3951246190        5.2735124360       -0.4446826110
 H        -7.8199154005        4.7902050158        1.1830777804
 H        -6.7357969653        4.6762907896       -0.3500453103
 H        -6.7344261833        0.5878887371        2.6854565630
 H        -6.8823463256        1.6273257069        4.1378484586
 H        -5.2802928813        5.4545040183        1.4154397072
 H        -3.8356689874        6.5431642476        1.9490377766
 H        -6.2797615530        4.9862323090        3.1725108642
 H        -5.1940024761        5.4074555864        4.4951996596
 H        -6.5337814685        4.0638905970        4.5541533532
 H        -3.1863418377        2.3517179640        4.2623126781
 H        -3.5483445073        3.7932671016        5.1611840470
 H        -4.8381422420        2.3452088691        5.0938927028
 H        -3.4875910938        4.3899764398       -0.1626062945
 H        -3.9190614327        6.0580062428       -0.4487372133
 H         1.1431813317        2.9388403551       -0.9563079098
 H         0.7451198984        3.6158008539        0.4886046485
 H        -1.8325440381        4.4643559551       -2.9993471553
 H        -1.7617098548        6.1155054690       -2.7495654247
 H        -3.0904872574        5.0300174988       -2.0204265333
 H         0.0590780608        6.8817394126       -1.0391151525
 H         0.9556890928        5.4864659552       -0.5256793693
 H         0.5161781516        5.6641158926       -2.2209113064
 H         1.0242835762        0.8232808195       -0.0917617096
 H        -0.7033746032        1.0029552645        0.3578375060
 H         4.8111096500        0.0124437443        1.7220749568
 H         4.2276645319       -0.6216139254        3.1702300197
 H         4.0878235957        1.9503768698        1.9821536666
 H         2.6674336977        2.9741563339        2.1641113943
 H         2.9820242139        2.3513941316        0.6841147658
 H         1.9937878992        1.9750226078        4.3033422890
 H         1.5207025871        0.3649023975        4.2136885874
 H         3.2019062710        0.7326512083        4.3108266866
 H         4.0985931871       -3.1155406799        1.8474332538
 H         5.0007459490       -1.9902800642        0.6143567310
 H         6.5927850084       -2.4652559990       -0.9159831834
 H         6.8469313240       -0.8790039083       -1.4489068119
 H         9.0978940179       -2.3772890296        2.9932052067
 H         7.9411078281       -0.9713397983        3.5335357440
 H         9.0318880571       -0.9413735888        2.0505990515
 H         8.8652914625       -3.7386436726        1.1264123684
 H         7.6122448787       -4.2984111101        2.4271940086
 H         7.2287688984       -4.3170028649        0.7910259543
 H         9.3223426196       -1.9362237724       -0.6443604969
 H         9.1571088702       -1.7025048509       -2.3404667677
 H         7.9449572607       -5.2510256084       -4.4885110590
 H         8.7751557939       -4.4401829080       -5.9125653291
 H        12.1501960197       -4.1691290572       -2.1299503908
 H        11.2673098203       -3.6380324009       -0.8308931452
 H        11.4994530310       -2.6978178207       -2.4872595870
 H         9.5530242794       -5.8629129572       -1.1082379361
 H         8.9290964526       -6.0636840866       -2.7410754965
 H        10.6706470159       -6.3417177490       -2.4663027440
 H        10.7043480251       -5.5354553302       -5.8111751669
 H        10.4769055850       -6.4580222888       -4.5659513876
 H         6.9539959941       -7.2296775476       -4.2775710562
 H         5.3041975313       -7.4598317661       -5.0165068861
 H         6.8168339501       -8.6346998828       -5.1590524274
 H         8.2499879358       -6.3667945338       -9.2486566716
 H         9.7671137439       -6.4974431415       -8.1995833679
 H         8.5103474095       -5.2312004962       -8.0383198938
 H         7.2189279939       -9.4894594596       -7.1520883568
 H         7.2469683742       -8.5989482026       -8.6416186869
 H         8.7718421866       -9.2081458462       -7.9837284877
 Na       -2.3539250374        1.7824069466        1.7020637034
