155

 C       -11.3756264009        2.5566037889        4.9123401572
 C       -11.3265958422        1.4114951207        3.9509400223
 C       -12.6712397187        0.9582338009        3.2740068749
 C       -12.9857480357        1.7441674828        1.9255758548
 C       -12.4056271114        1.1413066161        0.6072800701
 C       -12.4747869805       -0.5167968686        2.9122777827
 C       -13.8895898549        1.1616419944        4.1789036684
 O       -10.2043058745        0.9046752567        3.7745981248
 O       -13.7073979910        2.7024469955        1.8949861860
 C       -10.9346815005        1.1234258670        0.0266174314
 C       -10.2688863157        2.4491820926        0.4300654932
 C        -9.0635044205        3.0714182051       -0.2035700562
 C        -7.7845484154        2.8290149128        0.7608960549
 C        -7.9005851347        2.6365114710        2.2306035714
 O       -10.8140379685        3.0096758226        1.4007580239
 O        -6.6516767740        3.0443819052        0.1978082393
 C        -8.6331076193        2.3775745208       -1.5078238251
 C        -9.1672153191        4.6047279619       -0.0742187288
 C        -6.7377535594        2.0893821952        3.1069354311
 C        -5.3019957404        2.5981450859        2.7428889984
 C        -4.9673668059        4.0128921261        3.1301800316
 C        -4.0623634613        4.6227942177        2.0878043404
 C        -4.7151557056        5.2582092717        0.8448537528
 C        -6.1590712182        4.9599594296        3.3692874674
 C        -4.3175521062        3.8171093542        4.6425258283
 O        -4.4180114178        1.7802385938        2.3788023145
 O        -2.9016871565        4.5124533667        2.2401961916
 C        -3.8332298938        4.8827983706       -0.4376464654
 C        -2.4998237179        5.5673329026       -0.2924165244
 C        -1.1113283663        4.9479594194       -1.0348604858
 C        -0.7553490436        3.5864951025       -0.5875766023
 C         0.5810866436        2.9347134406       -0.9881982296
 O        -2.3855037572        6.6485831711        0.1712538510
 O        -1.5528677308        2.8903086748        0.0068369112
 C        -1.4283093597        5.0022711451       -2.6251490847
 C         0.0220292239        6.0094321047       -0.8195944791
 C         0.8732912985        1.5209572521       -0.4964509581
 C         1.1079323373        1.5597103817        1.0300783709
 C         2.5371951643        1.5427672011        1.5391590630
 C         3.1744901802        0.0386538555        1.7305410412
 C         4.3802538572       -0.1622203044        2.6098295736
 C         3.5638103539        2.1105832787        0.5369983880
 C         2.6025002086        2.3754266559        2.8641199840
 O         0.1756337324        1.4840784672        1.7922194991
 O         2.5896939908       -0.8218595896        1.1280131154
 C         4.5455302249       -1.6406564224        2.8322520641
 C         6.0615663305       -2.1062788494        3.1069710764
 C         7.0024028477       -2.7827764709        1.9748876683
 C         6.6245594560       -2.6294295938        0.4102434700
 C         6.9590133892       -3.6412148690       -0.6418306489
 O         6.3479425311       -2.2393989951        4.2545755719
 O         6.1845276415       -1.5539123211       -0.0428890591
 C         8.4672931921       -2.3709340355        2.1511572816
 C         6.9122275985       -4.2545002515        2.3274824077
 C         8.3607388729       -3.4333190378       -1.3010390130
 C         8.9759115852       -4.7872643000       -1.5662403858
 C        10.0291928568       -4.7259242173       -2.7145816040
 C         9.4194190698       -4.0730358238       -4.0321272922
 C         8.3722049238       -4.8310213688       -4.8232334992
 C        11.3513947455       -3.9323736995       -2.2934952038
 C        10.5456270954       -6.1325926372       -3.0537320126
 O         8.4258269050       -5.8611985310       -1.2519707878
 O        10.0034768109       -3.0979491670       -4.5323870152
 C         8.8639725876       -5.2520033158       -6.1770057741
 C         8.5057536809       -6.7895087642       -6.3910471035
 C         7.7220323585       -7.1939098359       -7.5881548327
 C         6.1530798835       -6.7845343515       -7.0484774091
 C         5.0399722868       -7.7777182199       -7.4059740913
 O         8.7167911923       -7.5210128205       -5.4621266661
 O         6.0130957866       -5.7846122736       -6.4683281572
 C         7.8563459652       -6.3692785284       -8.8770764001
 C         8.0737427095       -8.7429243236       -7.9537693309
 H       -10.4962966673        3.3112171553        5.0815388402
 H       -12.2996652175        3.0121938367        4.8488579043
 H       -11.4741433404        2.0642954574        5.8489107731
 H       -12.8946842086        0.1414117321        0.4629171600
 H       -13.0090554218        1.7292647556       -0.1938647213
 H       -12.4615997180       -1.0349205074        3.8143265475
 H       -11.6059356083       -0.6236198434        2.2945509892
 H       -13.3047255203       -0.7183153430        2.2892397388
 H       -14.6761956504        0.5281190567        3.7765339418
 H       -13.6590296239        0.7349625863        5.1114447758
 H       -14.1884700834        2.2103458479        4.2203018957
 H       -10.4054749584        0.1992845999        0.5472255043
 H       -10.9880036727        0.8536026530       -1.0837114179
 H        -8.0388349020        3.5808809313        2.6755957322
 H        -8.7494587201        2.0618409740        2.3815716371
 H        -9.3801949439        2.0696961100       -2.2075342155
 H        -8.2019513827        1.4044074607       -1.4101854696
 H        -7.8329370766        2.8352324757       -2.0608372444
 H        -9.7383246744        4.9666073227       -0.9774007196
 H        -9.5534649768        4.9283644603        0.8775214883
 H        -8.1527502198        4.9320904818       -0.0581363964
 H        -6.5647003843        0.9562754374        2.8973965267
 H        -6.8629509435        2.2831880828        4.2362159533
 H        -5.7599505789        4.8939128321        0.6182077368
 H        -4.9148060887        6.3091292460        0.8682859782
 H        -6.5951416517        5.3080562467        2.4674689977
 H        -5.8517645677        5.9761054135        3.5711689006
 H        -6.7518703581        4.6682557940        4.1734853831
 H        -4.9899228293        3.0434585763        5.0560681922
 H        -3.2435163614        3.5938509850        4.5413870970
 H        -4.4345353020        4.7463075499        5.1177025268
 H        -3.5643898286        3.8222233888       -0.4927095961
 H        -4.3751601677        5.2136527523       -1.3243401979
 H         0.5559249842        2.8477318894       -2.1199089646
 H         1.3213187547        3.5566548089       -0.6173577779
 H        -0.8031328990        4.0883875158       -3.0256460796
 H        -0.9266205944        5.8476861400       -3.1021310255
 H        -2.5430897651        4.9051117831       -2.8004328027
 H        -0.1254378021        6.9088120171       -1.3713136326
 H         0.1352111267        6.2698163906        0.2416994616
 H         0.9956452386        5.6978898970       -1.2694303691
 H         1.6837056036        1.1481284662       -1.1466091872
 H         0.1360464685        0.8305640726       -0.6491928780
 H         5.2442458418        0.3695002886        2.1384594323
 H         4.1149145856        0.3160625198        3.5248979131
 H         4.6028543701        1.7785933581        0.6556078466
 H         3.5663019383        3.1740326032        0.4911960177
 H         3.3986702226        1.7134016449       -0.4687394867
 H         2.2851818441        3.3748862535        2.5754466350
 H         1.8718580923        1.9837228599        3.6224620401
 H         3.6803459934        2.4921984529        3.0098593515
 H         3.8792257103       -1.8753037113        3.6635546679
 H         4.1862518755       -2.2027236891        1.9063637241
 H         6.8954323182       -4.7548829262       -0.4317505523
 H         6.2347646665       -3.4364046576       -1.5185017545
 H         8.5115235172       -2.7445837515        3.1763695445
 H         8.6063108916       -1.2639955010        2.0603598233
 H         9.1290859955       -2.8924920513        1.4612529092
 H         7.4893218230       -4.9492727811        1.7940596563
 H         7.2719439151       -4.2272702966        3.3845795430
 H         5.8946484526       -4.6473389286        2.4516199406
 H         9.0960274592       -2.6869004196       -0.6956608208
 H         8.2378787896       -2.9433020443       -2.2763268079
 H         8.2092548313       -5.7944297528       -4.3420194911
 H         7.4542565553       -4.2753851988       -4.8506765908
 H        11.5020728169       -2.8331382142       -2.5194416859
 H        12.1114353497       -4.3270695516       -2.9051920497
 H        11.5246820336       -4.1249512344       -1.2459688842
 H        11.0803997530       -6.5942689432       -2.2138085636
 H         9.6192109695       -6.8102125632       -3.2629213092
 H        11.2943671935       -6.1371210801       -3.8364663032
 H         8.3505097234       -4.5601051511       -6.8562120866
 H         9.9773558606       -5.0135356890       -6.2382591737
 H         4.2948357614       -7.1763440579       -6.9003604044
 H         4.8421183793       -7.8644988652       -8.3668630438
 H         5.1955691509       -8.8263168266       -7.0952950192
 H         7.7012027667       -6.9355126603       -9.8175559180
 H         8.8416517848       -5.9199243094       -8.9765059717
 H         7.0220207477       -5.5902305534       -9.0082170304
 H         8.1643733556       -9.0909266719       -8.9510245301
 H         8.8628126843       -9.1922455006       -7.3934857129
 H         7.2990983500       -9.3278491919       -7.4267852111
 Na       -2.0883726423        2.2330047862        2.0024815503
