155

 C       -10.1731688399        1.9910993871        5.9074568659
 C       -10.4480619408        0.9578109919        4.8166400493
 C       -11.9826816498        0.4640425036        4.2564733496
 C       -12.6163310583        1.6174996982        3.4385488542
 C       -12.2377004966        1.7633922897        1.8964143047
 C       -11.8577320345       -0.8479929007        3.4599674122
 C       -12.9093017407        0.2228577500        5.4601057442
 O        -9.5744406167        0.1528215790        4.5856303605
 O       -13.1125137932        2.5160459930        4.0688571958
 C       -10.7717067126        1.4331849007        1.4907739856
 C       -10.1748553601        2.7823396411        0.8001717127
 C        -8.8550282004        2.6675072600       -0.1355366589
 C        -7.5080120587        2.5248658373        0.7356665975
 C        -7.6871579765        2.6046186668        2.2981456698
 O       -10.6854953451        3.8598048181        0.9509676906
 O        -6.4210955106        2.6168728908        0.2759741462
 C        -9.2043902229        1.3895124610       -1.0696237669
 C        -8.7643831631        3.9434464343       -1.1018109603
 C        -6.3359903629        2.4551618937        3.0082006386
 C        -4.9264480316        3.0417663321        2.4049333021
 C        -4.5237956381        4.5929859722        2.7186330025
 C        -3.6486416106        5.0383264138        1.4631337706
 C        -4.1908915885        6.0268059855        0.5125700670
 C        -5.7957857891        5.4689694424        2.9452586130
 C        -3.6132160069        4.5176607021        3.9288683206
 O        -4.1391673628        2.2094948592        2.0562659486
 O        -2.5391777104        4.5384553176        1.3146760620
 C        -3.4881403279        6.0627346483       -0.9162714135
 C        -2.0112790975        5.9488711274       -0.7796653408
 C        -1.2898614854        5.0167023456       -1.8740436087
 C        -1.0791944669        3.5577766490       -1.1253796374
 C         0.3985143672        2.9049061217       -1.0946865726
 O        -1.2830696324        6.6633773992       -0.1531574824
 O        -1.9892389276        3.0424168566       -0.5716889995
 C        -2.0617979477        4.7924507354       -3.1345716910
 C         0.1008618307        5.6113691433       -2.2421509734
 C         0.6026699546        1.6388777698       -0.2349780490
 C         0.9192970629        2.0688786550        1.2056557945
 C         2.3553798116        2.0887830268        1.7474301267
 C         2.5868126728        0.4593479387        1.9169877409
 C         4.0180897907       -0.0939034500        1.7635628410
 C         3.4242153065        2.6878689708        0.7566978852
 C         2.4220714405        2.7098386243        3.1802728254
 O         0.0961592803        2.4256531234        2.0395934646
 O         1.6828165149       -0.1515914097        2.4403160084
 C         4.2564302575       -1.4983033043        2.3652477907
 C         5.7494053893       -1.8325874691        2.6242828564
 C         6.3300328389       -3.2836189718        2.3325551415
 C         6.6926909589       -3.1723941373        0.7916989342
 C         7.4262046577       -4.4098365241       -0.0247595419
 O         6.4969163796       -0.9903768463        3.0482789589
 O         6.2173506582       -2.1501287439        0.2746863374
 C         7.4734233723       -3.5341602565        3.4250142369
 C         5.2021093197       -4.3438348916        2.4605962565
 C         8.3730174746       -4.1137998307       -1.1363187366
 C         9.3103682371       -5.3445995925       -1.7066427387
 C        10.2585070936       -4.8957614520       -2.8646997836
 C         9.1768722623       -4.8072581713       -4.2520848134
 C         8.1076375817       -5.8760032173       -4.2811125823
 C        10.7742352740       -3.4580244112       -2.6219126145
 C        11.3339941984       -5.9162955701       -3.1983286277
 O         9.1058956785       -6.4852196693       -1.2127568482
 O         9.4539046427       -4.1708415917       -5.2249671343
 C         7.2100472284       -5.7969469163       -5.5579742993
 C         7.9187465146       -6.6764626474       -6.5493166729
 C         7.1058907713       -6.6511890280       -8.0124988581
 C         5.5746150126       -6.6642278669       -7.7284050851
 C         4.4197723472       -6.3276322453       -8.7807400504
 O         8.6673636197       -7.5528058774       -6.2575775087
 O         5.1999999235       -7.1750781108       -6.6173264320
 C         7.7869972791       -5.8016966355       -9.0830677199
 C         7.4276179675       -8.1146769567       -8.3436690180
 H       -10.7896636151        2.0911798597        6.9112325827
 H        -9.1390066382        2.0572075004        6.0012162055
 H       -10.3897291898        2.9402559773        5.3479060960
 H       -12.8238989061        0.9221043314        1.3665071493
 H       -12.5404087029        2.7492295564        1.4576946810
 H       -11.4891529177       -1.5974880250        4.0382826971
 H       -11.1069171607       -0.8316177688        2.7366702949
 H       -12.8180938569       -1.1579304267        3.1609010940
 H       -13.9128608204       -0.1513782385        5.1101156916
 H       -12.4210439235       -0.4640511945        6.0816868616
 H       -13.0773787796        1.1157794688        6.0281376261
 H       -10.0711240191        1.1041535301        2.3377358052
 H       -10.9771360192        0.6147515251        0.6818929358
 H        -8.2496672091        3.4555208772        2.5297283865
 H        -8.3437279120        1.7918326757        2.6488124643
 H       -10.0966434226        1.6431312921       -1.6604978524
 H        -9.2721828974        0.4330883505       -0.6255555668
 H        -8.5486563088        1.0345115147       -1.8852394250
 H        -9.4429392426        3.8263822100       -1.9513068855
 H        -9.2628691475        4.7169569329       -0.5513491562
 H        -7.7364549472        4.0513046339       -1.3424966488
 H        -6.0215770028        1.3715250913        3.0279481754
 H        -6.3229135740        2.7904767272        4.0249445234
 H        -5.2527688728        6.0549851431        0.3763882869
 H        -4.1080104410        6.9128956084        1.0502135536
 H        -6.5151931493        5.3797904359        2.1132320610
 H        -5.4776908750        6.3907954412        3.3056254236
 H        -6.3297784992        5.1690448732        3.8023752447
 H        -3.3145045403        3.4826192811        4.1797689203
 H        -2.6793026052        5.0819465664        3.6956000129
 H        -4.1886441698        4.8703874869        4.7967137791
 H        -3.8894643872        5.3029777195       -1.4759876831
 H        -3.6111101115        6.9704671569       -1.4957952390
 H         0.5544416945        2.5928240777       -2.0864099350
 H         1.2471753577        3.6585159942       -0.9859709043
 H        -1.5180308765        5.0142286246       -4.1275656650
 H        -2.9538469466        5.4690888794       -3.2235213045
 H        -2.5528308958        3.7426509322       -3.0729742287
 H        -0.2035646698        6.4623869846       -2.8401102494
 H         0.7819378956        5.8626129877       -1.4175858573
 H         0.6313937943        4.8428117305       -2.7697432776
 H         1.4911115255        1.0519008603       -0.6644721949
 H        -0.3122847492        1.1988334831       -0.4780060713
 H         4.3081616987        0.0243790471        0.7466908128
 H         4.6363593953        0.6552352386        2.2919971175
 H         4.3751514091        2.7592282517        1.1683539597
 H         3.0591280050        3.6699069224        0.4040228868
 H         3.4771678435        2.0849470603       -0.1102485513
 H         1.9728143464        3.6664030477        3.1571512719
 H         1.9383128306        1.9476341259        3.8127234214
 H         3.4739068536        2.6890889471        3.4227296390
 H         3.8451915048       -1.4355480351        3.4347821392
 H         3.7829149086       -2.3210908685        1.7925269338
 H         7.7075004358       -4.9643679545        0.7954476784
 H         6.5894904708       -4.8989844983       -0.5039186357
 H         7.0113292013       -3.4239668775        4.4263778269
 H         8.1335220774       -2.6810110850        3.2765629922
 H         7.8224401212       -4.5533235902        3.2417943557
 H         4.2030133943       -3.9777651956        2.1500426858
 H         5.3220118169       -5.2372424552        1.8274125283
 H         4.9805640316       -4.5505545969        3.5134895208
 H         9.0459122418       -3.1938351827       -0.8394385495
 H         7.7242931985       -3.7995675568       -1.9594202296
 H         8.6239384972       -6.9211755175       -4.1962403891
 H         7.5219900298       -5.7479667735       -3.3720700641
 H        11.5850340540       -3.5343253469       -1.8401257710
 H         9.8934541871       -2.8811625335       -2.3461333433
 H        11.1317406496       -3.0172734709       -3.5282517931
 H        11.9998752332       -6.1208979841       -2.3187090516
 H        10.9686733867       -6.8910710757       -3.5334398375
 H        11.8846517209       -5.6240098843       -4.1086780804
 H         6.1821933552       -6.2370370009       -5.5055987164
 H         7.0185353675       -4.7883260027       -5.9485770556
 H         4.3435552756       -5.3977882560       -9.3003705512
 H         4.2260718156       -7.1404645767       -9.3371635009
 H         3.6201425037       -6.1974318942       -7.9309623586
 H         8.3946998846       -4.9109297476       -8.7520788905
 H         7.1084365016       -5.2843071009       -9.7746554486
 H         8.4362859023       -6.5058515095       -9.6587972322
 H         8.4340760290       -8.2653737494       -8.6287443523
 H         7.0616925158       -8.7016931496       -7.4897674994
 H         6.8518195050       -8.5956635831       -9.1535937452
 Na       -2.0150254176        2.1592276777        1.6961463274
