155

 C        -7.6095108399       -1.2107122598        7.3127629165
 C        -8.4164370260        0.1112068273        7.5515127856
 C        -9.9934881237        0.1116790636        7.2705777811
 C       -10.3334255844        1.1050112810        6.0953536814
 C        -9.7305786882        0.6955158262        4.6224322290
 C       -10.4887712163       -1.2779384588        6.7988392818
 C       -10.4810501581        0.6018314433        8.6915817047
 O        -7.8099110650        0.9683879981        8.1126143584
 O       -10.9524775581        2.1338578477        6.0515121588
 C       -10.5710393071        1.1268363679        3.4027306867
 C        -9.9687177434        1.9744006999        2.3081219777
 C        -8.5568909735        1.6410366574        1.4819348621
 C        -7.4771155712        2.7926803124        1.9238085937
 C        -7.0699347416        3.7371465696        0.7313176767
 O       -10.4058862398        3.0002148827        1.9754696908
 O        -6.9392103453        2.9113375674        3.0221396272
 C        -7.8867436281        0.1768210597        1.9501529494
 C        -8.9439979185        1.6451142083       -0.0620431518
 C        -6.2626175807        4.8774897568        1.3210041476
 C        -4.8235196562        4.7807589733        0.9811934106
 C        -3.8872436755        6.0630154153        1.5406000102
 C        -2.8081243434        6.2236353107        0.4999687412
 C        -2.8510784143        7.3851713806       -0.6396125541
 C        -4.7404475028        7.4724983711        1.7966405248
 C        -3.2251618272        5.7024093516        2.8995037153
 O        -4.2605565265        3.7341259471        0.6233218876
 O        -1.8734298998        5.4758689114        0.3806448408
 C        -2.6930388412        6.7036671634       -2.0960218115
 C        -1.2128992272        6.4208064722       -2.4279798057
 C        -0.6939079436        4.9496020772       -3.1346962499
 C        -0.4264619283        3.8614711652       -2.0260047868
 C         0.9203627178        3.4844273081       -1.6464799123
 O        -0.3208038445        7.1564821381       -2.1335467549
 O        -1.4324447085        3.5729269641       -1.3934301169
 C        -1.9209481717        4.3241307681       -3.9819933834
 C         0.4736787182        5.3060979829       -3.9815178759
 C         1.0645687036        1.9755678449       -1.1906159937
 C         0.9381107561        1.9449518422        0.3912097491
 C         2.2578046100        1.7731044930        1.1707124295
 C         2.6769339246        0.2523430851        1.0382313062
 C         3.3035260484       -0.5441695732        2.2766447399
 C         3.4101235924        2.6166838242        0.4734125662
 C         2.2336701785        2.3334575536        2.6010014959
 O        -0.1224300520        1.9777574389        1.0196924773
 O         2.5411848137       -0.2389750565       -0.0674169632
 C         3.8634285847       -1.8650570884        1.6199355585
 C         5.0742505239       -2.5228773779        2.3429503820
 C         5.9787701397       -3.6158102007        1.4805437336
 C         6.0079007438       -3.1801338007        0.0156070535
 C         7.4532796011       -2.9632807522       -0.5187668138
 O         5.2707806363       -2.5254719331        3.5431209989
 O         5.0351323903       -3.0638390746       -0.7049699473
 C         7.2727713659       -3.8583225328        2.1719981540
 C         5.1130545859       -4.9046910752        1.7443356846
 C         7.7927714845       -3.7582012526       -1.8502539035
 C         7.9550390533       -5.2717826941       -1.5165462394
 C         7.9788069235       -6.3330696966       -2.7574653440
 C         6.8357887283       -6.0611020277       -3.8225187459
 C         5.7935215963       -7.2070759596       -4.1407542782
 C         9.2323633216       -5.9534872259       -3.3666840906
 C         8.0201618831       -7.7800457982       -2.1366347808
 O         7.9319551244       -5.7547289143       -0.4121546854
 O         6.8882634095       -5.0410477006       -4.5618832896
 C         5.1664551646       -6.9809356322       -5.5698450227
 C         6.2878446485       -6.7058796784       -6.7660894543
 C         5.9850220044       -5.5129364725       -7.8396171105
 C         5.0129820980       -6.2606010557       -8.7466781407
 C         4.2930979478       -5.6618180729      -10.1519957233
 O         7.3893608325       -7.2285074412       -6.7291982015
 O         4.5700008786       -7.3325139418       -8.4036809200
 C         5.4148325187       -4.2268128455       -7.1071456091
 C         7.1942147095       -4.9916619026       -8.6181778657
 H        -7.7569208836       -1.5500571724        6.3701317110
 H        -6.5457218505       -1.0727871294        7.5113699491
 H        -7.8466983693       -2.2087440731        7.8565387640
 H        -8.8635489524        1.4659916464        4.5082890626
 H        -9.3362290989       -0.3957951454        4.5658144385
 H       -10.4937139789       -1.9334449532        7.6455683814
 H        -9.7118277412       -1.7429791835        6.2486702274
 H       -11.3401785338       -1.3940985665        6.2963163351
 H       -11.5816906352        0.6565216934        8.5772111622
 H       -10.1477375636       -0.1792739359        9.3413374282
 H        -9.9358723608        1.5055019963        9.0527921986
 H       -11.1051821851        0.2677819348        2.9137088481
 H       -11.3070731081        1.9281310527        3.7246035053
 H        -6.6139582136        3.0711968423       -0.0248677927
 H        -7.9332880803        4.2054415480        0.2973955009
 H        -8.7103719183       -0.5609109243        1.9050255077
 H        -7.5431816668        0.0926907407        2.9420748962
 H        -7.1630269990       -0.1752565970        1.1743312094
 H       -10.0506766828        1.8260318973       -0.2528735312
 H        -8.4269513802        2.1934019536       -0.7619141131
 H        -8.7051935890        0.5763241410       -0.4635324691
 H        -6.2406600131        4.9687922044        2.4072606076
 H        -6.7086932949        5.7828581183        1.0929630626
 H        -3.6108951175        8.0679913745       -0.6795872685
 H        -2.0853695233        8.0998646857       -0.4110059219
 H        -4.0248589001        8.1461045517        2.4027972699
 H        -5.5604335795        7.2014055282        2.5449751947
 H        -5.0772897125        8.0098713516        0.9020863863
 H        -3.6434899245        6.3127190776        3.7364300006
 H        -3.4192848125        4.6658749579        3.2930604461
 H        -2.2092653302        5.6429344674        2.8894749822
 H        -3.1789789590        5.7593278816       -2.0135106469
 H        -3.2562647649        7.4317074943       -2.7031053080
 H         1.6375815670        3.7452984178       -2.3735676501
 H         1.1657321176        4.1349886482       -0.8792928079
 H        -1.7203370420        3.3051739088       -4.1633529214
 H        -2.0182339456        4.8319098686       -4.9865515604
 H        -2.8753274052        4.6008834508       -3.4473819238
 H         0.1305841708        5.9284159669       -4.8381408546
 H         1.2583134940        5.9571721518       -3.6316837127
 H         0.7253443240        4.4502409624       -4.5457649460
 H         1.9427662616        1.4974711670       -1.5127400543
 H         0.2261819569        1.3339503074       -1.5578895227
 H         4.1106827576        0.0426102305        2.7720853187
 H         2.5133155378       -0.7409410713        3.0009203943
 H         4.2303492440        2.7001441969        1.2227330592
 H         2.9329185321        3.5755654025        0.0304573495
 H         3.8629011420        2.1346528344       -0.4217641751
 H         1.9009041546        3.3983736736        2.5541258129
 H         1.4669826612        1.9567608921        3.3725287937
 H         3.1549680531        2.3289368269        3.2210015651
 H         2.9958787687       -2.5496428502        1.5071620958
 H         4.2815192267       -1.6108211958        0.5563910686
 H         7.7144135639       -1.9984716951       -0.5911693813
 H         8.1191749560       -3.5044528843        0.1186109682
 H         6.9658577160       -3.9615268469        3.2310251920
 H         8.0275908998       -3.0044155138        1.8740933842
 H         7.7114165363       -4.8213115521        1.6915604589
 H         5.3775147618       -5.7942787513        1.1347623666
 H         5.1857027250       -5.0756116438        2.8061192817
 H         4.0840631942       -4.6898955414        1.5723202008
 H         8.7676108163       -3.4951765993       -2.2322386025
 H         7.0721307837       -3.3417371278       -2.6338613199
 H         6.2372807469       -8.1920542899       -4.0954255008
 H         5.1165766917       -6.9622271443       -3.2607837197
 H        10.1022161038       -6.4516756593       -2.8539068180
 H         9.5627038488       -4.9582788660       -3.2856559222
 H         9.2363228266       -6.1772565515       -4.3994724130
 H         8.6454435970       -7.8819520062       -1.2181734432
 H         7.0026276078       -8.1156261568       -1.9588253460
 H         8.4293406645       -8.3899945915       -2.9349995621
 H         4.6167780195       -7.7656984412       -6.0684440845
 H         4.4989689320       -6.1310572671       -5.5025585946
 H         4.2272518621       -6.4892423699      -10.8356204506
 H         3.1855221213       -5.4640737987       -9.9125878644
 H         4.8990984282       -4.8942878426      -10.5839157505
 H         4.5706452036       -4.5254599236       -6.4536943264
 H         5.1383535033       -3.5607206201       -7.9820028764
 H         6.1650918180       -3.7355672148       -6.4933908908
 H         7.1361427379       -3.8686033986       -8.4600284370
 H         8.2070688862       -5.2609526472       -8.2337500549
 H         7.0473864214       -5.2413008779       -9.6453130283
 Na       -1.9634134475        3.2170862524        0.7037276987
