155

 C        -6.9560270089       -0.8537783866        7.5187770315
 C        -7.8268320685        0.2509438359        8.1183484338
 C        -9.3899233159        0.1477163403        7.8770835399
 C        -9.8085703872        1.0395864073        6.5313931717
 C        -9.3088692549        0.4719095551        5.1917870200
 C        -9.9049769810       -1.2771166757        7.8274120838
 C       -10.0168099146        0.9071322794        9.0916959498
 O        -7.3976772567        1.0597128383        9.0011741816
 O       -10.5450581836        2.0233356517        6.6043577761
 C        -9.8923695365        0.9736239842        3.9130552992
 C        -9.0909512933        2.0028755110        3.0690592288
 C        -7.7572452315        1.4040940487        2.3188882584
 C        -6.7499641253        2.6488665728        2.0568643838
 C        -7.1074493857        3.5027707313        0.9134168614
 O        -9.4170397772        3.1296516528        2.7236055821
 O        -5.8365352343        2.7964974667        2.8888568425
 C        -7.0088358095        0.1862277703        3.1003016073
 C        -8.1814350381        0.7390047430        0.9077833065
 C        -6.5017012719        4.9526750203        1.0707827351
 C        -5.0576995823        4.9341753728        0.9127855076
 C        -4.2944159152        6.4012022291        1.1058170301
 C        -2.9560446073        6.4230349234        0.3973383194
 C        -2.7696225457        7.4304132622       -0.9243025694
 C        -5.1453895802        7.7139171754        0.9524647265
 C        -3.9483941046        6.3554732573        2.6284122678
 O        -4.3785274988        3.9493885401        0.6287296783
 O        -2.1449158643        5.5834515087        0.6475466308
 C        -2.3665821683        6.6060011848       -2.1908585559
 C        -0.8641287519        6.3899235962       -2.3213974605
 C        -0.2786513705        5.1722611274       -3.3290559057
 C        -0.6110277342        3.9647981068       -2.4353274482
 C         0.5601870555        3.2048044303       -1.9134154835
 O        -0.0643467588        7.0347349906       -1.6583859804
 O        -1.8093951340        3.5449160137       -2.4854757670
 C        -1.1236537095        5.1617047610       -4.6872549935
 C         1.1680235228        5.4269709023       -3.6391456631
 C         0.2118682635        1.9059368895       -1.1622218220
 C         0.6193812162        2.1236624468        0.3121625671
 C         1.9642325884        1.6373894856        0.8136726423
 C         2.2211050223        0.0595695411        0.4785206849
 C         3.1677467952       -0.7341119996        1.4228526500
 C         3.0708234032        2.4826050393        0.0546215244
 C         2.0798844196        1.9080199996        2.3818601478
 O        -0.0985860588        2.8216669952        1.0311141388
 O         1.7337356281       -0.2761639283       -0.5428002672
 C         3.6444071642       -2.1407626909        1.3393903350
 C         4.9372553825       -2.2572148026        2.2481712013
 C         5.7686111598       -3.5537414664        2.0325904625
 C         6.2746849415       -3.4027076559        0.4526085288
 C         7.7606493961       -3.7674632146       -0.0711849391
 O         5.2323838031       -1.3608506524        2.9953420196
 O         5.5615061836       -2.9552676729       -0.4142220346
 C         6.8676381887       -3.5581748611        3.1076051331
 C         4.9304493882       -4.7868764362        1.9203909899
 C         7.7208092184       -4.2785578659       -1.4646493394
 C         7.2350485506       -5.7066617415       -1.5518807413
 C         7.7102990177       -6.8422302699       -2.5953263297
 C         6.9672076526       -6.2537218079       -3.9634081777
 C         5.9253423135       -7.1585234673       -4.4970619573
 C         9.1586288710       -6.7416378937       -3.0041735634
 C         7.3182264881       -8.2326444410       -1.9881783209
 O         6.2619368789       -6.0568244689       -0.8172146521
 O         7.4021178167       -5.2108018417       -4.3683794622
 C         5.0362598476       -6.7550243761       -5.8966437654
 C         5.8855792074       -6.3805769889       -7.1319007713
 C         5.3476007385       -5.4324923083       -8.3444533857
 C         4.5364941556       -6.3790633631       -9.5023383582
 C         4.3717374739       -5.8494390614      -10.9345592300
 O         7.0200072464       -6.7513180718       -7.2515179211
 O         4.0889361173       -7.4920202785       -9.1183583129
 C         4.2365239468       -4.5327115603       -7.8082930164
 C         6.4712214312       -4.7178375814       -9.0093295341
 H        -7.4802267829       -1.4172914040        6.6401747714
 H        -6.1043160615       -0.6082792870        6.8591955554
 H        -6.5352953502       -1.3652533543        8.3182568249
 H        -8.2480922590        0.7113750260        5.3409062909
 H        -9.3424517378       -0.6189377602        5.4333391672
 H       -10.0567911576       -1.5417904616        8.8883016296
 H        -9.1593913322       -1.8416469486        7.2743125215
 H       -11.0031955364       -1.5063117143        7.3438366495
 H       -11.0653098208        0.7651356886        9.0604406477
 H        -9.5082119373        0.4056893138        9.8940622825
 H        -9.7996820697        1.9606951744        8.9831421128
 H       -10.2453941464        0.2033996512        3.2738587283
 H       -10.6717472233        1.5854016280        4.3442659630
 H        -6.9577813661        3.0155500798       -0.0880968229
 H        -8.1772492525        3.7480906766        0.9028366599
 H        -7.6895441629       -0.6131855750        3.0960587615
 H        -6.5612297312        0.4665951791        4.0434539205
 H        -6.1762943992       -0.1488175925        2.4838987724
 H        -7.8980728541       -0.3357752917        0.8973551633
 H        -9.3036297390        0.6828032423        0.6050557459
 H        -7.6733073682        1.1931852659        0.1529726343
 H        -6.7216289486        5.2813858091        1.9988776930
 H        -6.9242609635        5.7505926148        0.2998678218
 H        -3.7218756379        7.9263068057       -1.2940748725
 H        -2.0439624975        8.2602305159       -0.6977857990
 H        -4.5336597909        8.6511127209        0.8395864911
 H        -5.7593099156        7.9307886343        1.8905552961
 H        -5.8289094661        7.7694165689        0.0992040600
 H        -4.8413990161        6.4797201260        3.1772121910
 H        -3.5740290298        5.4196198769        2.9390285557
 H        -3.4594460184        7.3238854593        3.0005023935
 H        -2.9014498605        5.5796470482       -2.2734635447
 H        -2.7621321498        7.3805021398       -2.9823403080
 H         1.0805685315        2.9136712199       -2.8495776562
 H         1.3920500953        3.8058442613       -1.3647237467
 H        -0.8299896038        4.4054674830       -5.3807464990
 H        -0.9399329163        6.0801973224       -5.0553448977
 H        -2.0963564473        5.0278437338       -4.4210561876
 H         1.2302674916        6.1960036706       -4.3608650203
 H         1.7689650060        5.5099744148       -2.6992709600
 H         1.6487702998        4.5525095066       -4.0776058411
 H         0.7601883277        1.0619892971       -1.5543274526
 H        -0.8483417996        1.6472858421       -1.1937237357
 H         3.9961137623       -0.0139792387        1.3818802045
 H         2.8263167701       -0.5439383689        2.4312633972
 H         3.9989440665        2.2120782784        0.5063104629
 H         2.9470512826        3.4528076339        0.2632887254
 H         3.0036834578        2.2533971742       -0.9860871884
 H         2.0132899432        2.9575078265        2.4994240063
 H         1.3031943087        1.5020627226        2.9481329306
 H         3.0240874324        1.6362778402        2.7856400969
 H         2.8450623784       -2.9240239598        1.5517671369
 H         3.9427615906       -2.5251980590        0.3733232033
 H         8.4855669071       -2.9698750885       -0.1182164036
 H         8.1390757918       -4.5322233044        0.6454924184
 H         6.6747542986       -3.7843890480        4.1395065056
 H         7.3348882371       -2.6207971576        3.0598655251
 H         7.5126614904       -4.3166940713        2.7399681132
 H         4.8461033883       -5.1453871707        0.9306949185
 H         5.4523060719       -5.6320320880        2.4592442660
 H         3.9454181218       -4.7028602618        2.3984741898
 H         8.6248034729       -4.0754379576       -2.1134022624
 H         6.9959556493       -3.6047239287       -2.0501953891
 H         6.4100716024       -8.1080111250       -4.4313084657
 H         5.1507585434       -7.2959613369       -3.7315598477
 H         9.9819581770       -7.0755254617       -2.3413631700
 H         9.3877183287       -5.8654852168       -3.5508138122
 H         9.3638420759       -7.4988232601       -3.8040684383
 H         7.9941096736       -8.5836181393       -1.2227642786
 H         6.2275602539       -8.2266180808       -1.6228491771
 H         7.3759236394       -8.8593685280       -2.8243233218
 H         4.5343231952       -7.6993642142       -6.3577303224
 H         4.4021488475       -5.9022847020       -5.6728039875
 H         3.8004125882       -6.6513917327      -11.3869769695
 H         4.0035665653       -4.9346836138      -10.9196631299
 H         5.3145850577       -5.6040889532      -11.4231314364
 H         3.3842586260       -5.1139518943       -7.5111439144
 H         4.0148553371       -3.8402934084       -8.6019113336
 H         4.5503850009       -3.9041182652       -6.9651785843
 H         7.1794485925       -5.4490520797       -9.3587976691
 H         6.0652423107       -4.1129146444       -9.8644906160
 H         7.0748090424       -4.1252713387       -8.3087043189
 Na       -2.1866748636        3.3931312800        0.2528654328
