155

 C        -6.4984799811       -0.5271035275        9.7598592217
 C        -7.3381887143        0.6399877742        9.0986997989
 C        -8.9601807967        0.4116615535        8.7425015075
 C        -9.2642493996        0.6892934985        7.2026866627
 C        -8.1216143199        1.2388995108        6.3825189870
 C        -9.3309205332       -1.0982305173        8.9737322893
 C        -9.7078442197        1.3141200290        9.8361988622
 O        -6.8038523512        1.7110761746        8.6413934637
 O       -10.3987921363        0.5575335790        6.7353522408
 C        -8.2307397863        1.0221642333        4.9103255100
 C        -7.3805493974        1.9874341955        4.0301445624
 C        -6.6489126648        1.2763355728        2.7817118402
 C        -6.0927962154        2.4386032494        1.9977704354
 C        -6.8947217458        3.3567865369        1.0523617698
 O        -7.2262039444        3.1702719740        4.2919971165
 O        -4.7872789663        2.5642486023        1.8740285305
 C        -5.5626726276        0.3773663095        3.3857984726
 C        -7.8299851169        0.4827783052        2.1365153817
 C        -6.4762605944        4.8059416647        1.1973725603
 C        -5.2620258308        4.9733450027        0.2639111601
 C        -4.2901667855        6.2443663275        0.7434458731
 C        -3.1018752483        6.4809160433       -0.1725907635
 C        -3.0161434400        7.6347515500       -1.2269540685
 C        -5.2582296592        7.4182729040        0.9166835111
 C        -3.7551657892        5.8124426600        2.1747221998
 O        -5.0960947362        4.4082489153       -0.7708867791
 O        -2.1355453345        5.6490502769       -0.1351086685
 C        -2.3429001287        6.8085064213       -2.4427398991
 C        -0.8154389668        6.6742140089       -2.2026467170
 C        -0.2188530105        5.6878348479       -3.2631262924
 C        -0.5297726377        4.1262595783       -2.8410938097
 C         0.6896338267        3.2600184150       -2.6443108777
 O        -0.1020000392        7.2611428957       -1.3920911375
 O        -1.6543051927        4.0096018496       -2.4511932137
 C        -0.8771468154        5.6964900086       -4.7134271454
 C         1.2815918368        5.9439759618       -3.4234258145
 C         0.4518880995        1.9451369189       -1.8424771133
 C         0.2289155396        2.0362599366       -0.2609137568
 C         1.4610372551        1.7039696300        0.6281227471
 C         1.5277288525        0.2608564730        1.3869502836
 C         3.0296901566       -0.1835077201        1.4779357472
 C         2.7798256118        2.2693751033       -0.1025615990
 C         1.2827992084        2.5675076001        1.9754939617
 O        -0.8626135668        2.2711305143        0.1846928663
 O         0.5423223469       -0.4034780589        1.6450328281
 C         3.2854357952       -1.6877497539        1.1388863377
 C         4.7503361564       -1.9769865529        1.3862150090
 C         5.3082325087       -3.4025038759        1.6065084457
 C         6.3358173794       -3.6511992912        0.4665474787
 C         6.8965305571       -5.0297337756        0.2744996531
 O         5.5783613730       -1.1183650302        1.5970255980
 O         6.6136747082       -2.7550415701       -0.3162423350
 C         5.9235953911       -3.6149666315        3.0954031667
 C         4.2121220484       -4.5254389016        1.4132081707
 C         7.0862420143       -5.2778115283       -1.2158880646
 C         6.6094521746       -6.7587855725       -1.4863615913
 C         7.0803988160       -7.4906924605       -2.8596109016
 C         6.6869844240       -6.4128165541       -4.0560547345
 C         5.9326749900       -7.0296511134       -5.2519952869
 C         8.5838890946       -7.5169259581       -2.9563735734
 C         6.5244692324       -8.9702322308       -2.8304335599
 O         5.7193368466       -7.2309997943       -0.7773796099
 O         7.0048992530       -5.2746913295       -3.9393644483
 C         4.9209320656       -6.4124859811       -6.2825024012
 C         5.7237637706       -5.7662676831       -7.4354016784
 C         4.9103454354       -5.1925151652       -8.8969551983
 C         4.4194850144       -6.5476616701       -9.4544664762
 C         4.2390463146       -6.8258781312      -10.9124320754
 O         6.9438337947       -5.7795133624       -7.4724013241
 O         3.7610058415       -7.1419835708       -8.5665721184
 C         3.7979018825       -4.1544938978       -8.5661055284
 C         5.9355389028       -4.5531103181       -9.9483958212
 H        -6.5537230994       -1.4145525278        9.0630192994
 H        -5.5668599916       -0.0265705183        9.9988006567
 H        -7.1216789876       -0.7728482338       10.5589269123
 H        -8.0653503197        2.3112061639        6.7288282590
 H        -7.1465555138        0.6367971473        6.7578144244
 H        -8.9480974778       -1.4279386966        9.9139142831
 H        -8.7171164912       -1.6611129417        8.3178029909
 H       -10.4343724686       -1.3002791829        8.6285639718
 H       -10.7405719654        1.3662605329        9.5615952180
 H        -9.5958073485        0.9519294103       10.8436086987
 H        -9.0685141051        2.2312636414        9.7016993045
 H        -8.0902063062       -0.0452304761        4.7559411642
 H        -9.2012033320        1.1710143464        4.6005722764
 H        -6.8748055763        3.1623875162       -0.0519834312
 H        -7.9606272613        3.3503407155        1.2627134678
 H        -6.1262594668       -0.3140296555        3.9681635636
 H        -5.0816016657        0.9953534614        4.0831113506
 H        -4.9075724982       -0.0405901925        2.6431811773
 H        -7.6572413600        0.2374090253        1.0230950961
 H        -7.7121290938       -0.5534071931        2.5592606341
 H        -8.6827319791        0.9557817748        2.3009092954
 H        -6.3915946061        5.0689962706        2.1906894736
 H        -7.4193417506        5.2800856601        0.7404271636
 H        -3.9174602623        8.0923668143       -1.5450048745
 H        -2.1582703411        8.2922346767       -0.8581014101
 H        -4.7159672899        8.3732496585        1.1119653718
 H        -6.0457980533        7.1575807029        1.6569540248
 H        -5.9989838700        7.5690778733        0.1855682619
 H        -2.8595112985        5.2723709363        2.0122282521
 H        -3.8422631419        6.6486563272        2.8295235045
 H        -4.5635454561        5.0957799793        2.5825111035
 H        -2.8288398697        5.7989987355       -2.4499394207
 H        -2.6870672007        7.1962805727       -3.5014766220
 H         1.0347032661        3.0410468437       -3.6018542909
 H         1.4203538795        3.8765816874       -2.1368341276
 H        -0.2643069492        5.0752760973       -5.3378594861
 H        -0.9176869048        6.6302051470       -5.0936177208
 H        -1.8238551450        5.3959894801       -4.6758634324
 H         1.4011131631        6.8678288211       -4.0585430762
 H         1.8803598028        6.1829361208       -2.5381829843
 H         1.6026318001        5.1749455432       -4.1165837451
 H         1.1348425772        1.1453804856       -2.1017271661
 H        -0.5923255110        1.6561440297       -2.1713244225
 H         3.6328044659        0.3908649432        0.7794962327
 H         3.3674220868        0.0695971201        2.5089939994
 H         3.5206550431        2.6142727509        0.6597687481
 H         2.5751138385        3.1193768618       -0.7080532659
 H         3.1646215612        1.5265874657       -0.7762698347
 H         0.9873488952        3.4990342348        1.6232232477
 H         0.4947866287        2.1283354081        2.5345980051
 H         2.1445744106        2.6326183020        2.5738320765
 H         2.8020066909       -2.3325747764        1.8087837050
 H         3.1432772460       -1.8259542205       -0.0094190724
 H         7.7198083059       -5.0671211244        0.8909634853
 H         6.1571069384       -5.6691892934        0.8041900599
 H         5.2414886340       -4.3086836643        3.6343146040
 H         6.0602475920       -2.8227235788        3.7357477701
 H         6.8391947092       -4.0925054749        3.0181099594
 H         3.8082293158       -4.6119665945        0.3841863000
 H         4.4886597200       -5.5003590153        1.8275719042
 H         3.3274472982       -4.2059524689        1.9608541428
 H         8.1002446972       -5.3372957139       -1.4606594539
 H         6.4385735446       -4.6160130253       -1.9042467557
 H         6.7622692365       -7.5526185572       -5.7219829139
 H         5.5126515167       -8.0104270372       -4.9563803510
 H         9.0186498892       -7.8263530942       -1.9134825052
 H         9.0823808288       -6.5845837850       -3.0132301993
 H         9.0411603568       -8.1840220918       -3.6991610881
 H         6.8691028690       -9.3091364064       -1.8683632223
 H         5.3870671545       -8.9781183181       -2.9678256311
 H         6.9345800198       -9.5643917951       -3.5498685251
 H         4.2516069283       -7.1481625655       -6.5954657782
 H         4.2417837133       -5.6947332895       -5.7012114322
 H         3.8160154722       -7.7533840603      -11.2548809171
 H         3.4384640234       -6.1903732860      -11.2220100962
 H         5.1909024581       -6.7992620651      -11.3992075292
 H         2.9518688908       -4.7483100486       -8.2425614312
 H         3.3481787833       -3.5844190751       -9.4046069658
 H         4.0118408485       -3.4631689121       -7.8161020427
 H         5.4993322122       -4.3090694806      -10.8884091388
 H         6.4620583290       -3.6796045387       -9.6219078501
 H         6.8113841837       -5.0689004324      -10.1271393251
 Na       -2.9323155927        3.4012653050       -0.2901384232
