155

 C        -6.8805751672       -0.0797644529       11.1398456421
 C        -7.2200708484        0.7579453376        9.8244057911
 C        -8.4822362742        0.4034917156        9.0306061084
 C        -8.5692956748        0.5103963333        7.3501034795
 C        -7.5804036260        1.5507066196        6.6372775308
 C        -8.9340414553       -1.0466207507        9.4424684355
 C        -9.5621652386        1.4878319548        9.3932025511
 O        -6.5037603603        1.7361488821        9.4906114600
 O        -9.3315803058       -0.2042852701        6.7723878158
 C        -7.7903770762        1.4558464893        5.1010233977
 C        -6.8503484445        2.2333428092        4.0277974884
 C        -6.2746686982        1.3815373384        2.7834666453
 C        -5.9572379866        2.3001165627        1.6567825888
 C        -7.0233373676        3.4060766822        1.1117152885
 O        -6.4354969488        3.3335045391        4.1613248440
 O        -4.8017313552        2.1300010310        1.1123949312
 C        -5.0087945727        0.7413574871        3.4157479807
 C        -7.2271399881        0.1678287585        2.2761430837
 C        -6.6938844641        4.8835439005        1.0683336235
 C        -5.4665564267        5.1280350385        0.1912392729
 C        -4.2950659169        6.2121879478        0.8496968453
 C        -3.1230795262        6.2072670370       -0.1185504495
 C        -3.0086111550        7.3603703235       -1.1325439128
 C        -4.9017104407        7.6363321351        1.0529455792
 C        -3.8485481362        5.5801777587        2.2468413056
 O        -5.1172646144        4.3989781121       -0.6584014914
 O        -2.4082136830        5.2026725921       -0.2879833451
 C        -2.4214431115        6.9649708326       -2.5099361935
 C        -0.8423088288        6.8503291964       -2.4810918592
 C        -0.1907962599        5.7359852857       -3.4134662791
 C        -0.6857514392        4.3961900090       -2.6369641071
 C         0.5226319444        3.5021517503       -2.4200498477
 O        -0.1123246145        7.5428075350       -1.8388997300
 O        -1.8084324911        3.9657311436       -2.4483583437
 C        -0.9065129723        5.6599577231       -4.7918906029
 C         1.3531952965        5.9940616564       -3.5129246447
 C         0.1709245369        2.1573470037       -1.7211382575
 C         0.0671098504        2.3323556071       -0.2570449947
 C         1.3376777672        2.2489457500        0.6428738678
 C         1.4962345261        0.6166017908        0.9080647693
 C         2.9117679746        0.0847964345        1.3107739117
 C         2.5544373278        2.8209795039       -0.0444829246
 C         1.1012625214        2.9242112002        2.0400676813
 O        -1.0086140177        2.2734363119        0.2996987196
 O         0.4682486102        0.0050452313        1.1474452965
 C         3.0742946880       -1.5578106016        1.3630573346
 C         4.5561614674       -1.9633431210        1.5139573471
 C         4.9993059813       -3.5838071357        1.6146119959
 C         6.1441973238       -3.9898644760        0.5009851896
 C         6.7357410180       -5.3441744382        0.3590339195
 O         5.4190261687       -1.1115502142        1.6162196346
 O         6.6274556000       -3.0949092706       -0.1290275761
 C         5.5561359760       -3.6155041587        3.0355362935
 C         3.8503560556       -4.6286596205        1.5146443591
 C         7.3048237088       -5.7741055691       -1.0616073274
 C         6.5071655252       -6.9461278938       -1.6687426708
 C         6.8606682932       -7.5473424708       -3.1746977891
 C         6.2910336477       -6.5547681677       -4.2044974918
 C         5.8506715053       -7.1115698076       -5.5086425683
 C         8.3951319186       -7.8047723216       -3.2691859308
 C         6.1917618868       -8.9514252683       -3.2655542125
 O         5.7246640457       -7.5963337786       -0.9349987614
 O         6.3459664521       -5.3994894919       -3.8962681516
 C         5.0654297638       -5.9970124148       -6.3394071064
 C         5.8067291213       -5.6887547929       -7.6177434988
 C         4.9439299843       -5.3396459024       -8.9654211893
 C         4.1181178436       -6.4257787459       -9.4836133271
 C         4.6200701733       -7.2030447061      -10.7957152435
 O         7.0157572706       -5.6681534809       -7.7515707073
 O         3.1377799504       -6.9070137334       -8.8393354090
 C         3.9312532983       -4.4289049447       -8.2535582956
 C         5.6151556774       -4.6287759951      -10.0754947637
 H        -6.9514284544       -1.0966588348       10.7503455531
 H        -6.0281508123        0.4357395122       11.5839813503
 H        -7.6201200992        0.0291492884       11.8034839549
 H        -7.5993107395        2.6563152568        7.0147316001
 H        -6.5073247971        1.1805542789        6.8504212036
 H        -9.2953755079       -0.7490491377       10.5185909255
 H        -8.0026782213       -1.7465806855        9.4438773975
 H        -9.7503716737       -1.5001388832        8.9378237174
 H       -10.4092725557        1.3361845817        8.6881097804
 H        -9.7256226548        1.3578276685       10.4995324643
 H        -9.1152174077        2.4981649239        9.1702635535
 H        -7.7992532590        0.4184433974        4.8153620835
 H        -8.8063723697        1.6589622404        4.9950646118
 H        -7.5388313629        3.1227176062        0.1469813383
 H        -7.7015187934        3.3655593286        1.9687084313
 H        -5.4910410580        0.1239620037        4.1410705360
 H        -4.4637370272        1.6045665896        3.7721959323
 H        -4.3749028312        0.1484004980        2.7518476987
 H        -6.6357913167       -0.6474672747        1.8129496376
 H        -7.7540497777       -0.2564866926        3.1396027104
 H        -8.0186481706        0.5420838584        1.6324851578
 H        -6.7728284959        5.3452211775        1.9580222961
 H        -7.4970651410        5.4385874501        0.3840042308
 H        -3.9925758279        7.7747199321       -1.2754953563
 H        -2.2986748254        8.1401590125       -0.6177893181
 H        -4.0803085944        8.3021158278        1.2844897862
 H        -5.5622249233        7.5459596391        1.9704069708
 H        -5.5694212730        7.9875727098        0.2688588006
 H        -3.8359436946        6.3838659828        2.8893960685
 H        -4.6187855484        4.8786003559        2.5075645216
 H        -2.8360913437        5.0838623355        2.0444231611
 H        -2.9688622321        5.9685188494       -2.8114399119
 H        -2.8440914577        7.6209859004       -3.3783918150
 H         0.7935377186        3.1745554465       -3.3666632863
 H         1.4325906556        4.0622289191       -2.0617025578
 H        -0.4357380735        4.9198543380       -5.4532481987
 H        -0.9296634757        6.6415420023       -5.2726518625
 H        -1.9150031250        5.3377937405       -4.6389288944
 H         1.5013405537        7.0082247055       -3.8791787985
 H         1.7662573959        5.8082544503       -2.4954667954
 H         1.7430711796        5.3287540934       -4.2620728638
 H         0.7100773564        1.3082536201       -2.1023121689
 H        -0.8529639701        1.9710057041       -2.1969669033
 H         3.6131470978        0.5713175886        0.6695319761
 H         2.9560758615        0.5558909433        2.2980086704
 H         3.3385163828        2.8239888901        0.7461271220
 H         2.5473347044        3.8064134735       -0.2425391174
 H         2.9206629718        2.2567336387       -0.8867921362
 H         1.2008442080        4.0325963073        1.8050966306
 H         0.0775994203        2.7061540296        2.3588311128
 H         1.8244100289        2.6514216410        2.8726035703
 H         2.5535703619       -1.7510547231        2.2706135180
 H         2.7251406256       -1.9834209296        0.3698248663
 H         7.3895221958       -5.5386554466        1.1276816068
 H         5.8916057259       -6.0917904937        0.5708938260
 H         4.7756192525       -3.9182397035        3.7141482614
 H         5.9653044203       -2.8160129965        3.5262869803
 H         6.1666904681       -4.4487331905        3.0383967055
 H         3.1060632058       -4.2798156927        0.8632391964
 H         4.2381907239       -5.6258447540        1.3631496001
 H         3.2589120088       -4.7072117463        2.3978348811
 H         8.2825981834       -6.1473426832       -0.8109485024
 H         7.0889221085       -5.0039574808       -1.9176730685
 H         6.8052193134       -7.3758137175       -6.0385295418
 H         5.3291382246       -8.1374310405       -5.5793160518
 H         8.7534007167       -8.5919601971       -2.5496095397
 H         9.0034409897       -6.9208419510       -3.1299961825
 H         8.7501667922       -8.1398881667       -4.2779330383
 H         6.5122275327       -9.6177392567       -2.4512647269
 H         5.1045311641       -8.9210746373       -3.3342640719
 H         6.5308037246       -9.3528225032       -4.2323613736
 H         4.0561422997       -6.3163300387       -6.6652119640
 H         5.0237869728       -5.0156091079       -5.7091418447
 H         4.0235036560       -7.9294935867      -11.1918226094
 H         4.6330531052       -6.5711597285      -11.7572395339
 H         5.5370871814       -7.5766823074      -10.4116406225
 H         3.5497923797       -4.7679052803       -7.3227949024
 H         3.0569371977       -4.1416203920       -8.9053270910
 H         4.3540386261       -3.4625793804       -8.0254434610
 H         5.0786908859       -4.4587122705      -10.9530285785
 H         5.9044931119       -3.6216357980       -9.7288706043
 H         6.5430388824       -5.0501769558      -10.4066235221
 Na       -3.0624495473        2.7395690948       -0.4747144639
