155

 C        -7.1254603759        0.4124318645       11.4007129523
 C        -7.1491659235        0.9486258852        9.9883521555
 C        -8.3585635235        0.4762075736        8.9856159253
 C        -7.9257214049        0.5250402409        7.4260468547
 C        -7.1573994210        1.6345379485        6.7557970558
 C        -8.9367149095       -0.8790380533        9.3603823313
 C        -9.4402458176        1.5819135501        9.2650022924
 O        -6.2895766221        1.7411841687        9.6181283377
 O        -8.3352143875       -0.4563850037        6.7613148136
 C        -7.5583900938        1.5446900637        5.2446206023
 C        -6.6689405989        2.1146205490        4.1287585568
 C        -6.0366866675        1.2945596342        2.9456432940
 C        -5.9531494321        2.2547166404        1.6110870402
 C        -7.0908491916        3.1780827308        1.3000475299
 O        -6.3972195818        3.3326142698        4.2875703618
 O        -5.0401132648        2.1619649289        0.9039034258
 C        -4.5327189582        0.7293116652        3.3656957004
 C        -6.9853990864        0.1555097736        2.5412599429
 C        -6.6491753788        4.6605343256        1.1335926128
 C        -5.3368533817        5.0232469625        0.3859786323
 C        -4.3666690221        6.1524582929        0.8907880407
 C        -3.2084240567        6.2896438731       -0.1288365221
 C        -3.0811048137        7.4808901671       -1.0715016928
 C        -5.0615379761        7.4697888040        1.2786541646
 C        -3.7327956932        5.4213530003        2.1197626894
 O        -5.0169585786        4.3279398378       -0.6140338287
 O        -2.4166049265        5.3776584574       -0.2344643544
 C        -2.4425026920        6.9354310885       -2.4082305585
 C        -0.8835796753        6.8203361060       -2.4630526347
 C        -0.3125853868        5.6538563209       -3.4521161740
 C        -0.6352800354        4.2386545778       -2.7934136437
 C         0.5078680587        3.3058609299       -2.3944261839
 O        -0.1873229887        7.7004103098       -1.9830979231
 O        -1.7956564733        3.9129247736       -2.6832092150
 C        -1.1373411600        5.7876902202       -4.8478053701
 C         1.2241159069        5.8645618892       -3.6846444920
 C         0.1811103480        1.9779160223       -1.6322913635
 C         0.1102931819        2.2124993188       -0.0736999761
 C         1.3556839081        2.1299252297        0.8044003528
 C         1.5514805818        0.5624612899        0.9158693896
 C         3.0248313152       -0.0017433690        0.9688960725
 C         2.5485633257        2.7958149011        0.1430856270
 C         1.1212178528        2.7380235937        2.2402200632
 O        -0.9500936130        2.4449089158        0.4850853221
 O         0.6157681084       -0.1866013571        0.8324941665
 C         2.9762785634       -1.4279537279        1.3930130767
 C         4.4700218209       -1.8763545228        1.5179596981
 C         4.8776449148       -3.4855774927        1.5084488203
 C         5.9924192025       -3.8794664854        0.5296065257
 C         6.3075979646       -5.4045848022        0.4459005833
 O         5.3344740891       -1.0790980119        1.6511579068
 O         6.3528493416       -3.0172993110       -0.3094405589
 C         5.3503838477       -3.7375588509        2.9684373536
 C         3.4846344323       -4.1181314505        1.2681402599
 C         7.0443980984       -5.8897521378       -0.8330706454
 C         6.4972384799       -7.2278306536       -1.4614715439
 C         6.9265014784       -7.6567085882       -3.1145361633
 C         6.2566832099       -6.5644787360       -3.9568122716
 C         6.1696712491       -6.9055963486       -5.5360295148
 C         8.3894296078       -7.8326241008       -3.4952087752
 C         6.1974520132       -9.0454996177       -3.1566111228
 O         5.4792599672       -7.6917816147       -1.1305849374
 O         6.0330720168       -5.4289267031       -3.5034089201
 C         5.0629000301       -6.3423754592       -6.3607436911
 C         5.6702976261       -5.6354489734       -7.7697469309
 C         4.7454337871       -5.1047672066       -9.0350539194
 C         3.9189044804       -6.4486609923       -9.6806522767
 C         4.7224918681       -7.3951098731      -10.3898544742
 O         6.8114527897       -5.9348044273       -8.0895540242
 O         2.8659762269       -6.6860477631       -9.1271945922
 C         3.6883161073       -4.0511273071       -8.8336143980
 C         5.8000923883       -4.4428660522       -9.9306100221
 H        -6.9889941828       -0.6598092143       11.2364797647
 H        -6.3957080156        1.0860834338       11.9038158974
 H        -8.1000916524        0.6403304215       11.9197601619
 H        -7.3107541490        2.5337107165        7.1614802468
 H        -6.0958060077        1.4977764354        6.6822812213
 H        -9.3693869948       -0.8432944579       10.2515514931
 H        -8.3711747934       -1.6331268488        9.0433345493
 H        -9.8973977081       -0.9363814712        8.7249205820
 H       -10.2795158265        1.3807765493        8.6203168407
 H        -9.5965459456        1.3942031515       10.2849672733
 H        -9.0946355385        2.5728218078        9.0705152552
 H        -7.7843364983        0.4821918971        5.0182250288
 H        -8.5944277616        1.9880183514        5.1756581635
 H        -7.3017064294        2.9508245974        0.2844913875
 H        -7.9569774299        3.0553116196        1.9485957215
 H        -4.6838107929       -0.1074279783        4.0443466778
 H        -4.1147538529        1.6254061364        3.6877856998
 H        -3.9472001395        0.4373087335        2.5366054629
 H        -7.1103921948        0.0260839024        1.4357261288
 H        -6.7052315493       -0.7981576720        3.0564007428
 H        -7.9136159721        0.3550136045        3.0025627561
 H        -6.2656049719        5.0168054811        2.1853484097
 H        -7.4357601789        5.3007844053        0.9627546321
 H        -4.0957754414        7.9675841058       -1.1954394459
 H        -2.4212379831        8.1910936498       -0.6631437297
 H        -4.2804703859        8.1066741070        1.8077745414
 H        -5.8394488572        7.3138192481        2.0801174862
 H        -5.4550246824        7.9382638326        0.3298189326
 H        -4.3637406558        5.7210453809        3.0285630198
 H        -3.8213623943        4.3482550150        1.9172064166
 H        -2.7321479698        5.7501945599        2.0440467547
 H        -3.0314907237        6.2166400223       -2.8016752739
 H        -2.4783515212        7.6521149849       -3.1770428496
 H         1.2251467745        2.9600696102       -3.2411644835
 H         1.2428242324        3.7928969604       -1.8377011201
 H        -0.7222029424        5.1265831098       -5.6488061281
 H        -1.0636266235        6.7573420569       -5.2455862094
 H        -2.1158854742        5.4266081944       -4.8023483383
 H         1.2267812305        6.7534221690       -4.3422616911
 H         1.6674971479        5.9894898712       -2.7354087395
 H         1.6894609155        4.9904629437       -4.2002700504
 H         0.9544179262        1.2648934727       -2.0161116633
 H        -0.6717324374        1.5202534452       -1.9975588790
 H         3.5452074857       -0.0126059936       -0.0490954036
 H         3.6010048926        0.6625613201        1.6370179848
 H         3.5295055688        2.5971955870        0.5438964136
 H         2.3784500305        3.9498403350        0.1207958074
 H         2.7044176807        2.5052699665       -0.9157450970
 H         1.4699773404        3.6977775168        2.2585971150
 H         0.1729268413        2.6528592889        2.7277667649
 H         1.8279988237        2.2166469719        2.7775657442
 H         2.5344707320       -1.4902383423        2.3986483467
 H         2.5003273549       -1.9606488602        0.5964362331
 H         6.7568947259       -5.8473578243        1.4248321195
 H         5.3426384077       -5.7853938213        0.5027410192
 H         5.4457600944       -2.8838537563        3.6658826849
 H         6.4570339647       -3.8384179022        2.9099653451
 H         4.9315413697       -4.5521151763        3.6026827537
 H         3.0300602986       -4.0803826686        0.2391696026
 H         3.5862768304       -5.1206405718        1.6445180081
 H         2.7525318409       -3.7229090989        1.9834990912
 H         8.1219445149       -5.8934869934       -0.6511295193
 H         6.7324570183       -5.1742480602       -1.4895705264
 H         7.1563531507       -6.7655772543       -6.0091545256
 H         5.9866545540       -7.9143942049       -5.6562196124
 H         8.8547657098       -8.6862959261       -2.9877046724
 H         9.0405886456       -6.9494406730       -3.5452158210
 H         8.4864555707       -8.1839950012       -4.5157062414
 H         6.3767925596       -9.6357156701       -2.2534866146
 H         5.0688535037       -8.9832249547       -3.2655995398
 H         6.5720567396       -9.5676606162       -3.9810889097
 H         4.4320193006       -7.1075614472       -6.7485013711
 H         4.5091069622       -5.6275970435       -5.8197338769
 H         4.2393713558       -8.4213943430      -10.1643990260
 H         4.4275650138       -7.3947458215      -11.3461680475
 H         5.8234630220       -7.3233023911      -10.2027660030
 H         2.6402571956       -4.3823277530       -8.8271527491
 H         3.8220637927       -3.2753525206       -9.5133874996
 H         3.7248814982       -3.6007952419       -7.8420007127
 H         5.4305825677       -4.1622851299      -10.9768441975
 H         6.1478994793       -3.5006769118       -9.5442963975
 H         6.6289908523       -5.0946726798      -10.2727519048
 Na       -3.0989272324        3.0053647099       -0.7002541918
