155

 C        -7.4126464568        1.3916807255       11.3948673086
 C        -7.0420326814        1.2848881500        9.9690435155
 C        -7.9881548504        0.7290255057        8.9019315310
 C        -7.0231452864        0.4153598006        7.6131235652
 C        -6.5057259601        1.6936167583        6.6788420236
 C        -8.8041742542       -0.5421984076        9.4130236983
 C        -9.1602704165        1.7398459977        8.4381356154
 O        -5.8545933877        1.6056211387        9.6346292154
 O        -6.4681813025       -0.6693160460        7.4776347482
 C        -7.0369195821        1.3985244429        5.2770570515
 C        -6.2571697694        2.1173695372        4.1102218008
 C        -5.6471824162        1.2600120930        2.9289998679
 C        -5.4579847088        2.1649597154        1.6848515520
 C        -6.7066085156        2.9463932103        1.1978578643
 O        -5.8700888523        3.2641075171        4.3368259613
 O        -4.4818828686        2.2065104132        1.0309898824
 C        -4.2335724031        0.8446690513        3.6974641609
 C        -6.5205242380        0.1239509822        2.5252314120
 C        -6.3507545567        4.4154390082        1.4007487616
 C        -5.2642087526        4.9543258259        0.5239616676
 C        -4.2057731260        6.0179170708        0.9745232416
 C        -3.1085413532        6.2432757829       -0.0668894504
 C        -3.2588399651        7.3498110944       -1.0285228956
 C        -4.9800169663        7.3766406821        1.3094418543
 C        -3.5329484457        5.3660243694        2.2904811021
 O        -5.0979520224        4.3971473238       -0.6356702206
 O        -2.1725361723        5.4413050194       -0.1015645474
 C        -2.7277692358        6.7860425812       -2.4077939033
 C        -1.2693940565        6.6318236926       -2.4574840035
 C        -0.7242846403        5.6012519489       -3.5140395138
 C        -0.9768522937        4.2294503969       -2.8212719940
 C         0.1907794653        3.5048995821       -2.1878364102
 O        -0.5065513202        7.1744225152       -1.7317466796
 O        -2.1242275807        3.8828107040       -2.7939452342
 C        -1.5091208182        5.4860855675       -4.8075450690
 C         0.7530353519        5.9271038808       -3.8544193855
 C         0.0292949606        2.0969092422       -1.5764298390
 C         0.0056184905        2.4680220055       -0.0436784306
 C         1.2152753936        2.0953108220        0.8399376271
 C         1.6388341003        0.6540504980        0.6394314631
 C         3.0772877811        0.1425705842        0.7879659690
 C         2.2309799473        3.2655396753        0.4397397663
 C         0.8822162145        2.1302593273        2.3012962847
 O        -0.9483223257        2.9674372398        0.5253649497
 O         0.7533076811       -0.1494809899        0.3394305914
 C         3.1561652220       -1.4513899760        0.9848010535
 C         4.5270044418       -2.0131153546        1.4780579571
 C         4.4898738196       -3.5964259205        1.5208504815
 C         5.3493194597       -4.1193131740        0.2587325810
 C         5.7556927533       -5.5729927584        0.3381784067
 O         5.5059253437       -1.3310397350        1.6085641033
 O         5.8633186204       -3.2502170327       -0.4615000006
 C         5.2053221769       -4.0339877749        2.9034148652
 C         3.1393302641       -4.3092119691        1.3183989983
 C         6.3898064048       -5.9463765864       -1.0326663515
 C         5.9631351594       -7.2412886783       -1.6880635220
 C         6.5363433368       -7.4095125293       -3.0616172280
 C         5.7243571861       -6.3920293326       -3.9542251953
 C         6.1327362990       -6.5810531787       -5.4423827337
 C         8.0853698660       -7.1654010036       -3.2008703466
 C         6.3106573103       -8.8449446064       -3.5123943475
 O         5.2602893853       -7.9738940441       -1.0266821303
 O         4.9034831514       -5.6696281585       -3.4457803924
 C         5.4406882067       -5.7548480575       -6.4918309313
 C         5.8170371620       -5.9103720064       -7.9646502460
 C         4.8234652608       -5.3152494398       -8.9591413080
 C         3.9529203756       -6.3501864200       -9.6492192426
 C         4.5784169170       -7.7440222486       -9.7745766694
 O         6.9372060685       -6.2903529848       -8.3850850925
 O         2.7411231038       -6.2420579022       -9.8978681183
 C         3.8852061552       -4.3527563805       -8.1674838041
 C         5.3344029515       -4.4908503906      -10.1730648179
 H        -7.0980640224        0.3815599172       11.7766147991
 H        -6.7489946246        2.1878121235       11.9049288916
 H        -8.4000066923        1.6638912841       11.3771536224
 H        -6.9477752977        2.5621092821        6.9537492050
 H        -5.4344782535        1.8393415343        6.8218702895
 H        -9.5981226198       -0.2338595628       10.0262949569
 H        -8.2179248299       -1.2888529990        9.8250940948
 H        -9.3069568897       -1.0997742313        8.6169331048
 H        -9.6539788231        1.4247253851        7.4805369803
 H        -9.8562996585        1.8540706328        9.2945951693
 H        -8.6124410109        2.7359378802        8.3847405887
 H        -7.0230261849        0.3212715830        5.0790895311
 H        -8.0856625794        1.6316669625        5.3166412022
 H        -6.6993867114        2.6802909960        0.1443236449
 H        -7.6666020983        2.8072557454        1.6903393686
 H        -4.4532575222        0.4808301258        4.7135467252
 H        -3.6486085176        1.7230646191        3.6197984864
 H        -3.7779202628        0.1444700583        3.0228185838
 H        -7.3463032523        0.5816666657        1.8826562333
 H        -5.9660643478       -0.6599885942        1.9214860224
 H        -6.9371047909       -0.4538477910        3.2569288089
 H        -6.2020113889        4.6691708091        2.4488472417
 H        -7.2706319581        4.9547950969        1.2275724661
 H        -4.3399506551        7.7358484138       -1.0968054543
 H        -2.6877649085        8.2315433100       -0.8334951609
 H        -4.3761538269        8.3099776340        1.1535692370
 H        -5.0377115183        7.3191922274        2.4029518820
 H        -5.7353992487        7.5455163139        0.6236898933
 H        -3.7662420065        4.3751500289        2.0875398999
 H        -2.4515907793        5.4643602170        2.2126200194
 H        -3.9207973738        5.9636887908        3.1616659849
 H        -3.2768507164        5.9608338624       -2.7140040541
 H        -3.0640495672        7.5537206638       -3.1279433742
 H         0.7823782466        3.4578549408       -3.1354733278
 H         0.8386439896        4.0738680680       -1.6247738266
 H        -1.0744468212        4.7514209270       -5.4518944237
 H        -1.5907279142        6.3447475573       -5.3580823942
 H        -2.4375177480        5.1509309965       -4.6429808052
 H         0.7140007080        7.0153591783       -4.1171290634
 H         1.4096195487        5.8251510839       -3.0299965855
 H         1.0492916400        5.1894025888       -4.6196891198
 H         0.7762016798        1.3088719258       -1.9245206808
 H        -0.8897763492        1.7674970601       -1.9686986543
 H         3.4962744949        0.4370988249       -0.2264109743
 H         3.6975019017        0.6104490914        1.5255550118
 H         3.2234694782        3.2585252609        0.8520005364
 H         1.7541542401        4.1852393284        0.6802356403
 H         2.4103677544        3.3817399410       -0.5821869614
 H         0.2981344404        3.0138733004        2.5703018591
 H         0.1808476970        1.2827571154        2.5100817865
 H         1.7788918283        2.0751267007        2.9211821918
 H         2.3715537078       -1.8863540409        1.6260404084
 H         3.0579718781       -2.0542993152        0.0641352784
 H         6.5634221873       -5.5338511802        1.1859636404
 H         5.0612061300       -6.2027762037        0.8023943630
 H         6.2436235725       -4.3875979707        2.9229611954
 H         4.6445821723       -4.6820275819        3.4324722857
 H         5.3216612806       -3.2544700220        3.6308361015
 H         2.7634774042       -4.0275475099        0.3093973825
 H         3.1041548001       -5.3556021008        1.3592780072
 H         2.5027545466       -3.8584158511        2.0189564449
 H         7.4483877871       -5.8146427900       -0.9398592790
 H         6.0131000900       -5.2152527513       -1.6677602570
 H         7.2069442325       -6.3209505104       -5.5900930121
 H         5.9034905618       -7.5376441689       -5.7092712378
 H         8.5936461092       -7.6432034935       -2.2526132323
 H         8.3926476640       -6.1328714620       -3.3419761408
 H         8.4876381098       -7.8193558460       -3.9841846604
 H         6.8235323775       -9.5402676902       -2.8546952556
 H         5.1994091385       -9.0402514421       -3.2204142371
 H         6.5161946045       -9.1261504990       -4.4691667284
 H         4.4093188119       -5.7365211485       -6.3290040386
 H         5.8917431260       -4.7624272506       -6.3752779711
 H         4.0435221516       -8.4885757696       -9.1649617574
 H         4.3860817969       -8.1577015367      -10.7425573031
 H         5.6376796979       -7.7879623914       -9.6296090831
 H         3.4815936128       -3.5095698357       -8.7915504822
 H         4.4634096490       -3.8019419665       -7.4486723936
 H         3.0439027204       -4.8355953754       -7.6688910787
 H         4.4263127482       -4.3372481434      -10.8277693576
 H         5.7289247188       -3.5463878787      -10.0008491133
 H         5.9249142963       -5.0375150222      -10.8569664854
 Na       -3.1065030039        3.2452539066       -0.5253578002
