155

 C        -7.9515849533        2.4070881741       11.0113567170
 C        -6.8281247117        1.8069278771       10.1241514580
 C        -7.3304544742        0.9648962910        8.8131496897
 C        -6.0946977937        0.4694235202        7.8528884679
 C        -5.7158267533        1.3815361723        6.5243577251
 C        -8.0369417970       -0.2726385075        9.2193460069
 C        -8.4016171136        1.8837793254        8.0714423216
 O        -5.6334809756        2.1031718001       10.2474968050
 O        -5.4269675663       -0.4917297893        7.9823320445
 C        -6.3378840746        0.9352002151        5.2251372249
 C        -5.8025042897        1.7632638927        4.0532161216
 C        -5.0934662428        0.9732038329        2.9421451013
 C        -4.8126069625        2.0544589954        1.8499637582
 C        -6.1280460640        2.7348421109        1.1653322627
 O        -6.1091269147        2.9180962632        4.0060507353
 O        -3.6910678976        2.4814165828        1.6512958292
 C        -3.8646205805        0.3049358337        3.5519601678
 C        -6.1938444286        0.0250246986        2.4670750088
 C        -6.0883944016        4.2002257121        1.4670236411
 C        -5.1170410402        4.9986391316        0.6726938074
 C        -4.2158799314        6.1159278462        1.2934537137
 C        -3.2522135898        6.3915318662        0.0723477888
 C        -3.4776385369        7.4472043661       -1.0420137644
 C        -4.9642946743        7.3415488259        1.6813154857
 C        -3.3228491587        5.5260235166        2.5693098541
 O        -4.9375208622        4.8255699597       -0.6143782332
 O        -2.2637879188        5.6520923196       -0.0472497451
 C        -3.0237776805        6.9103074754       -2.4625986737
 C        -1.6470023001        6.6810743708       -2.6209719434
 C        -1.1579969270        5.5201659801       -3.7117957539
 C        -1.3428081049        4.1789912691       -2.9487119380
 C        -0.1083552242        3.7005795461       -2.2594395925
 O        -0.7756707885        7.1827153547       -1.9053854283
 O        -2.4262874866        3.6767192216       -2.7239693201
 C        -2.1077158514        5.3206495536       -4.9143658957
 C         0.3288573857        5.9653120302       -4.2092988434
 C        -0.0188560395        2.4112218407       -1.3503098435
 C        -0.0399712537        2.5875370589        0.2064390848
 C         1.1866824051        2.0447518442        0.9606499427
 C         1.6521263120        0.6563219534        0.3270358698
 C         2.9274414617        0.0285578307        1.0705680190
 C         2.2857593206        3.0199309420        0.8039390057
 C         0.8100714998        1.8371020667        2.5213420497
 O        -1.1168731194        2.6255183892        0.7764189606
 O         0.9727357657        0.1019533040       -0.5585806011
 C         3.1693088253       -1.3835171781        0.5271207244
 C         4.2441650651       -1.9623684519        1.5129999536
 C         4.2177455091       -3.6237432337        1.8083041923
 C         5.0107453133       -4.1348807842        0.3884409629
 C         5.2292624788       -5.7161376785        0.3270628215
 O         4.9981968728       -1.2750160073        2.1821802294
 O         5.0096762598       -3.4542152236       -0.6043380287
 C         4.9945958541       -3.7691699742        3.0916149007
 C         2.7853210386       -4.2899547672        1.8676158985
 C         6.1186119805       -5.9094437247       -0.9919963529
 C         5.8656808057       -7.2430598418       -1.7818814587
 C         6.4816194455       -7.5752144887       -3.2419965053
 C         5.6237139610       -6.8362360999       -4.2671186633
 C         6.1387737214       -6.7824109642       -5.8253995438
 C         7.9690120414       -7.3150666446       -3.0436222910
 C         6.3318502828       -9.0723107023       -3.6105243193
 O         5.1773731270       -8.1329073408       -1.1907454855
 O         4.5347266163       -6.3728967591       -4.0877742101
 C         5.6598883736       -5.4691527498       -6.5559943251
 C         5.7210218368       -5.5572873766       -8.0749448374
 C         4.5874110766       -5.1110022169       -8.9518093333
 C         3.6337671098       -6.3293572281       -9.6243282894
 C         4.1776866613       -7.7878618430       -9.1656771684
 O         6.6065135550       -6.3667365909       -8.5061286365
 O         2.9730224018       -6.2107980717      -10.6583168829
 C         3.4986293013       -4.0725030014       -8.5035281206
 C         5.3762610635       -4.5458925300      -10.1731167301
 H        -8.4607392297        1.5887559780       11.5337392662
 H        -7.4230793593        2.9185586201       11.8163845894
 H        -8.4792765393        2.9109217924       10.2929443769
 H        -5.9184254823        2.4124788550        6.7425113726
 H        -4.6922477335        1.3032524620        6.5180752614
 H        -8.7489482137       -0.1955372074       10.0892696185
 H        -7.4663112998       -1.2228497267        9.4302531350
 H        -8.6000425645       -0.4786918812        8.4232541387
 H        -8.7626186182        1.2456138668        7.2394063352
 H        -9.3548496198        1.9111912095        8.6133601569
 H        -8.1344015570        2.9821705230        7.9293334675
 H        -6.1305395079       -0.1190830555        5.2213095559
 H        -7.3811522162        1.1688532351        5.1930796245
 H        -6.1965308450        2.5536143022        0.0549355026
 H        -6.9981741056        2.2398993010        1.6297457434
 H        -4.2063586808       -0.6165114869        4.0350081071
 H        -3.5818350447        0.8806480194        4.4195696243
 H        -3.0663304093        0.2151333630        2.7309426145
 H        -7.2259540568        0.2964856657        2.5366023526
 H        -5.9711404140       -0.2831490348        1.4861062402
 H        -6.1441534485       -0.9115816660        3.1292617310
 H        -5.9803315798        4.4434190601        2.4091591796
 H        -7.0564251052        4.7493902294        1.3234071576
 H        -4.5561845785        7.8205220553       -1.1473493838
 H        -2.9028966210        8.3545457885       -0.7409488283
 H        -4.4164831699        7.8501127998        2.4918221086
 H        -5.9428766420        6.9063141834        2.0259131668
 H        -5.1011679262        8.0399822469        0.8897971391
 H        -2.3618776682        5.4196916769        2.2536089739
 H        -3.4978988521        6.2979826415        3.3318847039
 H        -3.9007919778        4.5757054867        2.7910668474
 H        -3.5591072074        5.9601624464       -2.4732662211
 H        -3.4419365331        7.5951697712       -3.2656023526
 H         0.4933249074        3.3513614328       -3.1064913050
 H         0.4963684918        4.4582876705       -1.9650667258
 H        -1.5588527830        4.7903087841       -5.6402379453
 H        -2.5000702114        6.1943368779       -5.4117942154
 H        -3.0206856601        4.8094424213       -4.6677642613
 H         0.1745204515        6.8006719459       -4.9467293769
 H         1.0186689600        6.3350901187       -3.4840210161
 H         0.7080982899        5.1365023142       -4.8290831612
 H         0.8522627221        1.8206321672       -1.7769664855
 H        -0.9946167088        1.9178270569       -1.5722722596
 H         3.8467314700        0.6410288249        0.9257950832
 H         2.7193270050       -0.0264889405        2.0863238794
 H         3.0406067102        2.9087437315        1.5793688754
 H         2.0098334547        3.9912659202        0.8771792681
 H         2.7446207043        2.9262053214       -0.1382851303
 H         0.4304470797        2.8516450160        2.9029054738
 H        -0.0197528358        1.1284511215        2.7426079216
 H         1.7197592193        1.5286901132        3.1444296031
 H         2.3820846002       -2.1067598096        0.5679474362
 H         3.4113065866       -1.3913257775       -0.5852544884
 H         5.7772072112       -6.1785256446        1.2232035531
 H         4.3606833135       -6.3190630786        0.1800478881
 H         4.8046210947       -4.7285967348        3.4765529532
 H         4.9217320884       -2.9822974599        3.7438346801
 H         6.0002916518       -3.9957572980        3.0640144566
 H         2.3161972047       -4.0826573173        0.8606188721
 H         2.8953307726       -5.3705765617        1.9202065667
 H         2.2255988854       -3.9289218790        2.6955411410
 H         7.0981619498       -5.7575229815       -0.6870872370
 H         5.8961885003       -5.0306531373       -1.5918915020
 H         7.1911568101       -6.7843191868       -6.1300742185
 H         5.5244579726       -7.5891104183       -6.2448915698
 H         8.1769391496       -7.9281691371       -2.0890490121
 H         8.2724728763       -6.3504056898       -2.7011173566
 H         8.4351361081       -7.6124518506       -3.9677347510
 H         6.5863361083       -9.7271468620       -2.7814605192
 H         5.3102422170       -9.3062185227       -3.9694722557
 H         6.9660446365       -9.3752307130       -4.4266975904
 H         4.7528464848       -5.1464477168       -6.1922598078
 H         6.3162326583       -4.6272981073       -6.2474923035
 H         4.4421308355       -7.8869087088       -8.1971902427
 H         3.7014257580       -8.8026781461       -9.5062302705
 H         5.1258218908       -7.8028646821       -9.6139871764
 H         2.5170124944       -4.3798015232       -8.9048359825
 H         3.6386053893       -3.0583531016       -8.8984677901
 H         3.5573046787       -3.9143944173       -7.4485662291
 H         4.7408331007       -4.1615378168      -10.9812594044
 H         5.9758821340       -3.7212022527       -9.8683288114
 H         6.0839532594       -5.1989154516      -10.6155844867
 Na       -3.0303337094        3.3405974112       -0.4267555865
