155

 C        -7.6932103738        3.2431525228       10.2488787392
 C        -6.5152979667        2.4382484943        9.7490260605
 C        -6.6045781171        1.2457122213        8.8669425276
 C        -5.2998679309        0.8730120601        8.3969896940
 C        -4.7530037031        1.3579199434        6.9988272203
 C        -7.2858081325        0.0829392154        9.6727921530
 C        -7.5944781100        1.6193031771        7.6373426426
 O        -5.4150615480        2.6644511623       10.2657254007
 O        -4.5364320998        0.2540980685        9.1269868331
 C        -4.7886892645        0.3310799827        5.7737691690
 C        -5.3076739993        1.0630826376        4.5473320441
 C        -4.7238342112        0.6458767617        2.9739818843
 C        -4.8552550175        1.9877768082        1.9840953971
 C        -6.1328183576        2.8559165643        1.8980960719
 O        -6.2761782119        1.7868966856        4.4862912965
 O        -3.8544165887        2.2396511558        1.3795530356
 C        -3.2020981735        0.2731708538        2.7798038625
 C        -5.6642623863       -0.5019097231        2.5394706089
 C        -6.1824311084        4.3392884642        1.3367540465
 C        -5.0378923136        4.9264805907        0.4868482774
 C        -4.3001163450        6.1633503792        1.2159942687
 C        -3.1781944036        6.6468284958        0.2476761774
 C        -3.2710930114        7.7963846280       -0.7767297499
 C        -5.1144672245        7.3391622697        1.5679040073
 C        -3.5875605145        5.5652630773        2.5376096038
 O        -4.7926713585        4.5654941362       -0.5760469490
 O        -2.1227769645        6.0326499733        0.2232196207
 C        -3.4705051190        7.3731086899       -2.3079882366
 C        -2.1967144566        7.0179667910       -2.9803912817
 C        -1.9564628883        5.6908758831       -3.7648227535
 C        -1.5892436245        4.5843603593       -2.6753050365
 C        -0.1870571627        4.4447287007       -1.9864842515
 O        -1.2119428950        7.7934012719       -2.9810078856
 O        -2.4958428360        3.8446638429       -2.2550964051
 C        -3.2695191704        5.3999732201       -4.5438600553
 C        -0.7147016312        5.9254813725       -4.7921150485
 C         0.2513560905        2.8969882145       -1.6785110985
 C         0.3698320419        2.5473632938       -0.1134819315
 C         1.4536752519        1.8782870535        0.8398740556
 C         1.6675363737        0.3686814071        0.4771505762
 C         2.4733037080       -0.5495899482        1.6074307162
 C         2.7849603877        2.7214558671        0.7693414690
 C         0.8111912172        2.0541686223        2.2186243327
 O        -0.7341811460        2.7394876990        0.3749000354
 O         1.4044094570       -0.0060940690       -0.6371992596
 C         3.5873294189       -1.3903759601        0.9105453456
 C         4.2324234055       -2.3784083841        2.0110616172
 C         4.2332852804       -3.9378215373        1.5951388012
 C         4.2820766604       -4.1995400019        0.0053835530
 C         4.2219198978       -5.7365090351       -0.3079725995
 O         4.5309323882       -1.7588573912        3.0312760884
 O         4.1803048029       -3.3184492500       -0.8510737371
 C         5.3949132014       -4.6056332992        2.2945330127
 C         2.8265458019       -4.6212062361        1.9770628504
 C         5.0858391109       -6.0268054452       -1.5543150267
 C         5.4601530725       -7.4415440338       -1.8983679744
 C         6.3551718788       -7.6661555932       -3.2568068703
 C         5.4643772216       -6.9802566956       -4.3010995794
 C         6.0439753387       -6.5469957319       -5.6222252962
 C         7.8660890134       -7.1547993291       -3.1435818057
 C         6.1484546615       -9.1121941409       -3.8047035226
 O         5.0835773250       -8.4600444885       -1.3145021198
 O         4.2060049418       -6.9303608855       -4.2242401090
 C         5.0564377014       -5.7816805228       -6.6130896977
 C         5.6596107607       -5.8900762854       -8.0073765543
 C         4.7022053016       -5.2985184428       -9.1224689622
 C         3.5463953619       -6.4356272203       -9.8215037778
 C         2.7372697055       -7.6012440861       -8.9005470360
 O         6.8989455383       -5.8582565303       -8.0877524789
 O         2.9785128621       -6.0706578524      -10.8156664127
 C         3.6498460848       -4.0754088902       -8.6554233592
 C         5.5866306362       -4.8707853097      -10.3628871012
 H        -8.6917071554        3.1486269242        9.6643201229
 H        -7.7427405429        2.9192020079       11.3767368142
 H        -7.4325559108        4.2699259616       10.2138911227
 H        -5.3994069080        2.1473559352        6.6682806965
 H        -3.6462683845        1.7001255580        7.0386314112
 H        -8.0853614726        0.4405154183       10.2673920551
 H        -6.6917911180       -0.3620511597       10.4675531333
 H        -7.5646485916       -0.6860539068        9.0663517764
 H        -7.5277602692        0.8341335540        6.8052246274
 H        -8.6050390527        1.6694291343        8.1152549614
 H        -7.3449424204        2.5266125067        7.0687143771
 H        -3.8766580492       -0.1466950423        5.5211189985
 H        -5.5389838451       -0.4564911439        5.9432643954
 H        -6.7236443703        2.1830576470        1.3000194819
 H        -6.6876624315        2.8811324102        2.8487199943
 H        -3.0813841834       -0.8029897724        3.1227894859
 H        -2.6867667241        1.0224859442        3.3693403854
 H        -2.9169761173        0.4441451242        1.7400916624
 H        -6.6861137206       -0.2301470571        2.8750608355
 H        -5.6800278710       -0.8907129922        1.4772183566
 H        -5.3644825895       -1.3471715301        3.0967483789
 H        -6.2524249949        5.0139871649        2.2342149848
 H        -7.0980448016        4.3406979073        0.6956220386
 H        -4.0734714303        8.5149933174       -0.5112014437
 H        -2.3521285937        8.3577098823       -0.6491133656
 H        -4.4449740790        8.0200953249        2.1880299250
 H        -6.0483371003        7.1555664503        2.1437006977
 H        -5.5789422136        7.7476097777        0.6419276960
 H        -3.4111107162        4.4981611768        2.4698113895
 H        -2.7748668060        6.2922490156        2.5033958773
 H        -4.2670368433        5.7101084943        3.4063592477
 H        -4.1195191737        6.5995521996       -2.2343397627
 H        -3.9666157739        8.1662240059       -2.8202484490
 H         0.5833120089        5.0973738700       -2.5102660018
 H        -0.5275072516        4.9808322430       -1.0240545003
 H        -3.1983646942        4.6661977596       -5.2771034834
 H        -3.5515600441        6.2824852260       -5.0148641128
 H        -4.0196376175        5.1155911222       -3.9018610650
 H        -0.9993040021        6.2524304655       -5.7969571280
 H        -0.1369554245        6.7281986623       -4.3633287059
 H        -0.0582761202        5.0262745071       -4.9743742836
 H         1.2336849459        2.7795940090       -2.1121221559
 H        -0.5401391912        2.3914716562       -2.1509102561
 H         2.8279014264        0.0305752403        2.4488010532
 H         1.5731535959       -1.1762453233        1.9459655083
 H         3.5079247374        2.5874765856        1.5287902172
 H         2.4156883718        3.7288873084        0.8255821695
 H         3.3015073423        2.6549713346       -0.1277474319
 H         0.8575496287        3.1359449997        2.4289580097
 H        -0.2014420929        1.5164038801        2.3053606664
 H         1.4490609083        1.5902106102        3.0148298651
 H         3.0939642415       -1.9051624161        0.0559010033
 H         4.3610809944       -0.8243933637        0.5555572816
 H         4.6276079067       -6.3640584497        0.4777301316
 H         3.1831363285       -5.9825986209       -0.5348114911
 H         5.3497603572       -5.7082746323        2.5640702490
 H         5.4503440504       -4.3036970508        3.2792086507
 H         6.3875069986       -4.4046179770        1.8707176070
 H         2.0409025472       -4.0365919590        1.5703617086
 H         2.9604545409       -5.6005382284        1.5954164239
 H         2.7788968777       -4.7554567732        3.0661284951
 H         6.0323805807       -5.3418439203       -1.4661557520
 H         4.6119460099       -5.4757656684       -2.3112049316
 H         6.7909014873       -5.8081215962       -5.3423232988
 H         6.5470584050       -7.3290268042       -6.0629366430
 H         8.3519126142       -7.7326379885       -2.3479369292
 H         7.6483853490       -6.0852772393       -2.9707195932
 H         8.4673608111       -7.2895294926       -4.0521901600
 H         6.3331027953       -9.8572289727       -3.0299855022
 H         5.1013149585       -9.3437977158       -4.2443057142
 H         6.7681556083       -9.3360714586       -4.5941537983
 H         4.0363580303       -6.1593191578       -6.6078852893
 H         4.8423530487       -4.8115913031       -6.3007468098
 H         1.7878675937       -7.1833975389       -8.6136111459
 H         2.6262475289       -8.5689001864       -9.5329345774
 H         3.2255842011       -7.9884911587       -8.0554291964
 H         3.5216109791       -3.4043436470       -9.4939005996
 H         4.0463028999       -3.6369512120       -7.7753826784
 H         2.6480663489       -4.5482833551       -8.4919677074
 H         5.1281705500       -4.4886514183      -11.2826572044
 H         6.3679382953       -4.2038819235      -10.1305443794
 H         6.0258488097       -5.8071154715      -10.6432065166
 Na       -2.8442601925        3.5787156717       -0.2279098519
