155

 C        -3.9785264770        2.8246318362       11.6928692369
 C        -3.9741391544        3.7602418808       10.5094069121
 C        -2.9004005059        3.4748580470        9.3654876381
 C        -2.7530954138        1.9782428437        8.8011939368
 C        -3.9464706531        1.1494793450        8.4059971990
 C        -3.0223295980        4.4861105573        8.2285880883
 C        -1.6361867816        3.9254896411       10.2022796587
 O        -4.7060083165        4.6957017014       10.4509030416
 O        -1.5727488128        1.6736831742        8.6508975109
 C        -3.7053426574        0.0908780970        7.0227566212
 C        -3.9334463900        0.8343232863        5.5977293926
 C        -2.8646272748        0.4112977147        4.4399180926
 C        -2.8016286707        1.6995620503        3.3940527704
 C        -4.0051969488        2.1034219048        2.5109232419
 O        -4.9505693768        1.3788172545        5.3306433141
 O        -1.7483050672        2.2910630511        3.3092383478
 C        -1.5089378668        0.2113318486        5.1400783984
 C        -3.2584667074       -0.8443240558        3.6775389072
 C        -4.2464027326        3.6298090098        2.6749393619
 C        -5.2178406154        4.1571130392        1.5463361096
 C        -5.2141306379        5.7510025199        1.4359280459
 C        -3.9153996391        6.0621925389        0.4102707987
 C        -4.1370952705        6.9205206007       -0.8141893283
 C        -6.5053058847        6.2971031835        0.8975950469
 C        -5.0397281402        6.4051482688        2.8087571107
 O        -5.8531801533        3.4816042942        0.7545610416
 O        -2.8350514292        5.4099743873        0.5934449795
 C        -4.4742405493        6.2115596839       -2.1524216624
 C        -3.1589492327        5.7384055396       -2.9829737481
 C        -2.6854460964        4.1876076606       -2.8717890627
 C        -1.7034589173        4.1631866242       -1.6672725585
 C        -0.5255931040        5.0239342699       -1.7057264143
 O        -2.3744670898        6.4755866051       -3.3879480942
 O        -1.9627528968        3.5133098666       -0.6892559887
 C        -3.8362958108        3.2112770178       -2.7670525694
 C        -1.8222576598        3.8430185504       -4.1444688078
 C         0.7748661048        4.1544562142       -1.7733993754
 C         1.2405824062        3.6583564517       -0.3628276218
 C         2.2376459363        2.4630919180       -0.0765809598
 C         1.4328814610        1.1729712110       -0.5323933209
 C         2.3483884194       -0.0483223851       -0.6850679080
 C         3.6708662722        2.6969046216       -0.6591043446
 C         2.4434975671        2.3540391866        1.4587866374
 O         0.8606397956        4.2947178048        0.5793586019
 O         0.1916413494        1.2477566063       -0.3933806518
 C         1.7822876702       -1.4350680760       -0.5892116941
 C         2.1495954503       -2.2687877172        0.5415283709
 C         1.7676428321       -3.7354716988        0.3910490040
 C         3.1411385375       -4.2777405002       -0.4833624443
 C         3.4528102275       -5.9076697074       -0.3783874465
 O         3.0577735444       -1.8811932249        1.3147532196
 O         3.5357559558       -3.7203880180       -1.4755977729
 C         1.7185437788       -4.5181924403        1.7440425001
 C         0.6618274781       -4.1722962217       -0.5898684381
 C         4.2547075583       -6.5300767957       -1.5257770020
 C         3.4299737220       -7.3089119781       -2.4980176538
 C         4.0153234920       -7.9016123196       -3.7409939363
 C         3.7289851328       -6.6817817485       -4.7900211255
 C         3.4059130797       -6.9775887021       -6.2686873718
 C         5.5182616358       -8.1711258002       -4.0873143559
 C         3.1974633650       -9.1709032349       -3.8322167653
 O         2.2416500510       -7.3970674428       -2.3745283427
 O         3.6139759020       -5.5113729917       -4.4394135002
 C         3.5516387968       -5.9426840583       -7.3721794431
 C         4.0738479780       -6.6946853947       -8.7279006018
 C         4.1808765230       -5.9243724714      -10.1389266179
 C         3.1918938364       -6.3181256490      -11.2069603064
 C         3.1343081256       -7.7232803274      -11.8318200411
 O         4.5205285724       -7.8339075776       -8.5511844079
 O         2.3168506725       -5.5762683958      -11.5445904749
 C         4.2232929027       -4.4507485370       -9.7910184708
 C         5.5858267525       -6.3961916103      -10.7680301935
 H        -4.5699590170        1.9155801968       11.3726504412
 H        -2.9763886580        2.5216660593       11.7405178037
 H        -4.3170464337        3.4500162689       12.5407921135
 H        -3.9587066869        0.3520768056        9.1253491521
 H        -4.9386414589        1.7759187956        8.3444351068
 H        -3.2761518811        5.4289735149        8.6168663301
 H        -3.8347592278        4.3029291314        7.5276102070
 H        -2.2247217353        4.3949550191        7.6233649956
 H        -0.7526387140        3.7853796552        9.5599153353
 H        -1.7091868683        4.9620577012       10.5733686273
 H        -1.3479613386        3.3111975313       11.0389825039
 H        -2.7908360506       -0.4433078447        6.9802490756
 H        -4.4906928458       -0.6789480993        7.1736159967
 H        -3.9318902814        1.7360828854        1.4433635293
 H        -4.9594905360        1.6758450807        2.8725086381
 H        -1.4700454454       -0.7443480974        5.6774916574
 H        -1.1271981130        0.9353418941        5.8397961939
 H        -0.7003447919       -0.0229719573        4.4931916143
 H        -2.3787797851       -1.0913066851        3.0354772039
 H        -3.4671179228       -1.6988100943        4.3844876995
 H        -4.0965939543       -0.7281249445        3.1256963139
 H        -3.3367400075        4.2420476590        2.6186547912
 H        -4.6983767707        3.7474917692        3.5790078222
 H        -4.8798562470        7.6947650379       -0.5414558628
 H        -3.2524315371        7.4283356847       -0.9096013306
 H        -6.7377889510        7.3875012699        1.1062662844
 H        -7.3925413379        5.8918080484        1.3910202434
 H        -6.6220494186        6.0758954607       -0.1825671532
 H        -4.2508246234        6.0623752248        3.4750465306
 H        -5.0705569549        7.5183780889        2.9081592641
 H        -5.7857200525        5.9269944579        3.4434703511
 H        -5.1061201742        5.3579646845       -1.9072004345
 H        -5.0994987377        6.8821902130       -2.9179705957
 H        -0.6268513341        5.7771592701       -2.4681281939
 H        -0.6514633463        5.5799787407       -0.8028557709
 H        -3.5693071894        2.1192401694       -2.9085005190
 H        -4.6977659099        3.4426422444       -3.4929068701
 H        -4.1661813753        3.2357448186       -1.6387956283
 H        -1.6623318896        2.7950157833       -4.3847357947
 H        -2.2344823212        4.2910398931       -5.0360240721
 H        -0.8761556665        4.3655380104       -3.9133429252
 H         1.4801527018        4.6256077296       -2.4059406529
 H         0.4573285717        3.1633054716       -2.2168923987
 H         2.9294764977       -0.1066010237       -1.6359406447
 H         3.1591625014        0.0934549796        0.0954646556
 H         4.4806297938        2.0551085487       -0.2482038675
 H         3.8070936424        3.6834845937       -0.4221236299
 H         3.7899357440        2.6865837495       -1.7270736953
 H         3.0432575082        3.2294185505        1.7766672905
 H         1.5042664792        2.2864326925        1.9628939050
 H         2.7600137217        1.3619272434        1.8034942614
 H         0.6497315505       -1.4573908846       -0.4108371181
 H         1.9309622419       -1.9931175925       -1.5162723393
 H         3.6274396166       -6.2082814744        0.6120206175
 H         2.3993371234       -6.3318269970       -0.4880036756
 H         1.6274206846       -5.5886219581        1.6280587908
 H         0.8661413145       -4.0917881883        2.2312106654
 H         2.6127427702       -4.2034145723        2.2318760129
 H         0.6319070593       -3.5003206580       -1.4371011451
 H         0.7115414526       -5.2237583423       -0.9536303000
 H        -0.3418448765       -4.1543817474       -0.0462394663
 H         5.0635415151       -7.1324617678       -0.9458357175
 H         4.7152875648       -5.6981372707       -2.0926584787
 H         3.9102773699       -7.8478365143       -6.7485218589
 H         2.3506685679       -7.2952599198       -5.9834578667
 H         6.0272834926       -8.9680875929       -3.5528035219
 H         5.9933305286       -7.1999837513       -4.0760062274
 H         5.7506900768       -8.4119954160       -5.0799284056
 H         3.4747926023       -9.7645945238       -2.8743313522
 H         2.2348533894       -8.8364963342       -3.9105210501
 H         3.4950542260       -9.8036154130       -4.6249940734
 H         2.7745667978       -5.1473247598       -7.5504690483
 H         4.5162706752       -5.3572569260       -7.2815656161
 H         4.1810151528       -8.0268605541      -12.0630722869
 H         2.7797145602       -8.5373804971      -11.2908838814
 H         2.4615616846       -7.7427173533      -12.6679085179
 H         5.0716845655       -3.9889824940      -10.2436787613
 H         4.3637518320       -4.2220241064       -8.7047590646
 H         3.2742622077       -4.0287511233      -10.2012006604
 H         5.8006940511       -6.0060882194      -11.7774751040
 H         6.3530052650       -5.9817251481      -10.1501404024
 H         5.5948111435       -7.4412458498      -10.5325918240
 Na       -1.0940585441        3.7340040510        1.6430812008
