155

 C        -2.8411469402        2.4687826637       11.4509333522
 C        -3.3809361232        3.6566234732       10.5075058620
 C        -2.6444581482        3.8181081978        9.2130814086
 C        -2.6068987462        2.3236459804        8.5315343945
 C        -3.9280005224        1.5038312633        8.4011851715
 C        -3.4190054882        4.7920508478        8.2882163501
 C        -1.2161326653        4.3817686494        9.3695060610
 O        -4.3173736487        4.3060198982       10.8814664274
 O        -1.5184150014        1.9176517197        8.1674533176
 C        -3.6199416136        0.3427529567        7.3242467927
 C        -3.6489997647        1.1340273077        5.8897480293
 C        -2.5636430982        0.7849139232        4.7840214397
 C        -2.7197777933        1.8221071207        3.6764475477
 C        -4.0796675556        1.9820903228        3.0115345588
 O        -4.4981921647        1.9458495095        5.6898767045
 O        -1.8384045325        2.5971957357        3.3495301648
 C        -1.1963390798        0.5317025739        5.2728790524
 C        -3.1769611208       -0.6634816189        4.3527581458
 C        -4.6200810200        3.4232880791        3.0362469483
 C        -5.0904661005        3.8762086020        1.6636811087
 C        -5.2245322693        5.3655821733        1.4142187849
 C        -4.0876928341        5.7552772894        0.4869938469
 C        -4.2196100358        6.7757345659       -0.6563460555
 C        -6.7617917682        5.5266346193        0.9219993267
 C        -5.1519011064        6.3418428102        2.6431281975
 O        -5.4680589744        3.0773307012        0.8955129739
 O        -2.8648592239        5.4520130441        0.7622369737
 C        -4.5541779437        6.0874609620       -2.0416939024
 C        -3.2212372828        5.6450623382       -2.6201182110
 C        -2.7861485309        4.1519586860       -2.5863638067
 C        -1.4404718323        4.1172981294       -1.8022233459
 C        -0.2500647647        4.9367462095       -2.1069875202
 O        -2.6075709726        6.4581183771       -3.2942406936
 O        -1.4656417717        3.3209685411       -0.8689484673
 C        -3.8598013258        3.2668523576       -1.8233879212
 C        -2.5139520346        3.6093377618       -3.9837964606
 C         1.0246649786        4.3356072064       -1.7466792063
 C         1.4235233573        3.9199666742       -0.1604034480
 C         2.5352697823        2.7107484452       -0.0540895885
 C         1.5847801854        1.3279728379       -0.1666268409
 C         2.4381619038        0.0401064816       -0.7766996402
 C         3.8164122821        2.9122396761       -0.9381858544
 C         3.0692996431        2.8623080670        1.3828282249
 O         0.8474986451        4.4507583606        0.7449283385
 O         0.5200305165        1.2245213522        0.3645769262
 C         1.7560645468       -1.2747506405       -1.1183817722
 C         2.1076986552       -2.3300107223       -0.0197886821
 C         1.7753364578       -3.9206875950       -0.0534194141
 C         2.9052418515       -4.7148616016       -0.7180837748
 C         3.2285996766       -6.0882804998       -0.1837891816
 O         2.3709513210       -1.8557783483        1.0650448672
 O         3.5966896157       -4.2931121839       -1.5864854215
 C         1.5510000526       -4.3890592799        1.4420784539
 C         0.4515317146       -4.1225491358       -0.7964693796
 C         3.7237395913       -7.0535721128       -1.1914477038
 C         2.8560683655       -7.3070973491       -2.5125455967
 C         3.5391734867       -7.7857194817       -3.7924953332
 C         3.4282445252       -6.6508767999       -5.1475105061
 C         3.0948073098       -7.1407772202       -6.6148524856
 C         5.1032392890       -7.9459604098       -3.8324224637
 C         2.8790292736       -9.1542551137       -4.1281710570
 O         1.6766858181       -7.2364705079       -2.4860664536
 O         3.9743881257       -5.5512750694       -5.0078503339
 C         3.2536005329       -6.1528707600       -7.7693640127
 C         4.2108600686       -6.8367368030       -8.7929606788
 C         4.3084273466       -6.1069510384      -10.3399084863
 C         2.9880766481       -6.3805719830      -11.0985111941
 C         3.0568195524       -7.1221392154      -12.4337883635
 O         4.6170097383       -7.9887865431       -8.6749140213
 O         1.9619222340       -5.9960776972      -10.4658898392
 C         4.5324793705       -4.5089543643      -10.1133010699
 C         5.6722851514       -6.6483620790      -10.9360955524
 H        -2.5012017249        1.7109453088       10.6996741840
 H        -1.8552836618        2.9098127949       11.7645001145
 H        -3.4927140601        2.4554057229       12.2259499693
 H        -3.9802718998        1.3098146096        9.5221647731
 H        -4.6488480686        2.2985447500        8.1158913003
 H        -2.9749341021        5.8273853964        8.5114381905
 H        -4.4541145275        4.8324412679        8.6502987678
 H        -3.4805382834        4.6424061599        7.2593292138
 H        -0.7480987590        4.6023355673        8.3633996341
 H        -1.1920775309        5.3867156876        9.7840176104
 H        -0.5533572382        3.6412817672        9.8386153280
 H        -2.8828504697       -0.3592079210        7.6433005390
 H        -4.4852775525       -0.3713979635        7.1346558429
 H        -3.9533179872        1.6630487647        1.9602872924
 H        -4.7658062708        1.1892935610        3.2929579327
 H        -0.9243220703       -0.1697525756        6.0104876875
 H        -0.8802180156        1.5263414535        5.5203011775
 H        -0.4462810028        0.2075563377        4.5500001869
 H        -2.9822962693       -0.9542149952        3.3151560640
 H        -2.9019319646       -1.4014338429        5.0720184039
 H        -4.2908729957       -0.6160968773        4.5190324833
 H        -3.8809863316        4.0725557234        3.5225115115
 H        -5.4569711198        3.5973336995        3.6498936153
 H        -5.0572591176        7.4959327710       -0.3705691034
 H        -3.3073120778        7.2276847661       -0.7750646794
 H        -6.7333102679        6.6033148182        0.5239474560
 H        -7.4593627082        5.5696378474        1.8174097371
 H        -7.0342941198        4.9424806168        0.0422285880
 H        -4.1279377760        6.4383199534        3.1091069966
 H        -5.3196832486        7.3874755728        2.3587844738
 H        -5.9176969343        6.1744956883        3.4113257287
 H        -5.1540255305        5.1548130799       -2.0325277755
 H        -4.9630544811        6.9266487900       -2.7123807238
 H        -0.3405236714        5.4050376112       -3.1016239101
 H        -0.4812584572        5.7817550554       -1.4640845294
 H        -3.4313631617        2.2931796158       -1.7402885794
 H        -4.7803198600        3.1685211545       -2.4430632111
 H        -4.1914637831        3.7061095631       -0.8177428151
 H        -1.6746857197        2.9069065065       -3.9308918326
 H        -3.3963371224        3.1706575949       -4.3725462919
 H        -2.2407132464        4.4885646443       -4.6049398222
 H         1.7729042873        4.9937560422       -2.1324304820
 H         1.1381091329        3.2842811954       -2.2019946436
 H         2.9110112814        0.3781133565       -1.6958916273
 H         3.3363789579       -0.0903574479       -0.1914399021
 H         4.6763411246        2.8599611146       -0.2906113340
 H         3.7753421055        3.8925450564       -1.2968928611
 H         4.0047282165        2.3544290834       -1.8374074708
 H         3.4154586860        3.9609793477        1.5867913714
 H         2.2513841281        2.6759158179        2.1485766112
 H         3.7756840408        1.9829511436        1.4591425059
 H         0.6521799299       -0.9942881748       -0.8839560506
 H         1.9475118253       -1.6902333053       -2.1096696090
 H         4.0151728052       -5.9650957757        0.4475380873
 H         2.5230148023       -6.4385073097        0.5251245218
 H         1.3135437027       -5.4978599605        1.2600028198
 H         0.7146691884       -3.8643436232        1.8316540601
 H         2.5196883182       -4.4677321679        2.0137318484
 H         0.5663156182       -4.3696430391       -1.8546527898
 H        -0.0499703595       -5.0243214506       -0.3916770192
 H        -0.2104460342       -3.2268407005       -0.9312101105
 H         3.8663071971       -7.9958711045       -0.4979473593
 H         4.7556341794       -6.7093515384       -1.3874323280
 H         3.6693969973       -8.0545936452       -6.6660066278
 H         2.0563833556       -7.5200530676       -6.7265546397
 H         5.4124242692       -8.8251609091       -3.0900975532
 H         5.7014188958       -7.0241051300       -3.5960883250
 H         5.3471108848       -8.3155319994       -4.8217411022
 H         2.9454761801       -9.7509704051       -3.1830824505
 H         1.9262711008       -9.0405783687       -4.5430833372
 H         3.5998021424       -9.6739747560       -4.7805300421
 H         2.2926305178       -5.9041947620       -8.3273000445
 H         3.3951811563       -5.0541340191       -7.3009022517
 H         2.3860559169       -7.9875707926      -12.5669502500
 H         2.6447769710       -6.4003748056      -13.1479820846
 H         3.9825193153       -7.3704675526      -12.7382770760
 H         4.4730990514       -4.2538112198      -11.1494950398
 H         5.5590743976       -4.3201779981       -9.7760191990
 H         3.7664025450       -3.9354319290       -9.5269380774
 H         6.1736090685       -5.9791451786      -11.6895271832
 H         6.1913927905       -6.5590093608      -10.0434301808
 H         5.5779709312       -7.6323369466      -11.3587583564
 Na       -1.4822704375        3.6888081076        1.4264421007
