155

 C        -0.4704174156        4.2008621541       11.7552538203
 C        -1.8249995583        3.7536593233       11.1755083702
 C        -2.3494281130        4.3843124223        9.6857035662
 C        -2.1463816569        3.1694968305        8.7151393991
 C        -3.3616957081        2.1541142680        8.4987040487
 C        -3.7985479749        4.9326441368        9.8734617153
 C        -1.4281234868        5.5089909444        9.2659331692
 O        -2.6258472170        3.0841769348       11.7861531768
 O        -1.0984545770        2.9992379898        8.1371571361
 C        -2.9943921551        1.1059575489        7.5899556730
 C        -2.8802212084        1.6085875170        6.2268678836
 C        -2.1644551655        0.7952806977        4.9768925581
 C        -2.3920457316        1.4992521135        3.6597104541
 C        -3.8896102725        1.7273297595        3.1728805844
 O        -3.2311068577        2.7479861865        5.9914251781
 O        -1.4757290511        1.7386852283        2.8688008193
 C        -0.7657073157        0.5275460113        5.2806525190
 C        -2.8454197590       -0.6322061176        4.7151424029
 C        -4.2593116824        3.1724070332        2.9943288477
 C        -5.2177739176        3.4369337563        1.8292952071
 C        -5.4164039096        4.9259570463        1.4826806685
 C        -4.2380888745        5.4811925640        0.5781183941
 C        -4.4309953090        6.6036607238       -0.4396798741
 C        -6.7817135285        4.9573729239        0.6819104360
 C        -5.7090359115        5.8566646874        2.7235998123
 O        -5.9193547425        2.5798372525        1.2992246131
 O        -3.0494295101        5.0467180332        0.7045651985
 C        -4.5538350079        5.8921786097       -1.8195454465
 C        -3.1683458704        5.4382326522       -2.2670245522
 C        -2.8817743540        4.0299062654       -2.8052218920
 C        -1.7066990911        3.5420740166       -1.9317681275
 C        -0.3424651061        4.2214877502       -2.1311292097
 O        -2.3301175543        6.4016365651       -2.3497876530
 O        -1.9073281687        2.5738650045       -1.2062970074
 C        -4.1066573122        3.0880397695       -2.4332571802
 C        -2.5850991867        3.7366005435       -4.3588820379
 C         0.8372028949        3.4443410907       -1.6974001620
 C         1.2847679922        3.4073999788       -0.1290398580
 C         2.7327723648        2.9185663304        0.1573945613
 C         2.2764521955        1.2396329577        0.0886578707
 C         2.8721646844        0.2160315355       -0.9042829689
 C         3.9363642997        3.1663235991       -0.8453447260
 C         3.3328385869        2.8943022088        1.5338375616
 O         0.5350070418        3.7619491151        0.7744452208
 O         1.2032431257        1.0161241397        0.6281214416
 C         1.8532980618       -0.9530038802       -1.2663760800
 C         1.7081134982       -1.8329019392        0.0277879456
 C         1.0285681879       -3.3560196721       -0.2614756614
 C         2.0999225446       -4.2930966962       -0.9105265430
 C         2.0218021056       -5.8053274146       -0.6973703558
 O         2.1860429866       -1.5661553726        1.0854186648
 O         2.9920725645       -3.7466909816       -1.5683276421
 C         0.5759102832       -3.6860721204        1.2504773550
 C        -0.1086101821       -3.2056694811       -1.3142978097
 C         3.0421791746       -6.4293769143       -1.7281370476
 C         2.2811688023       -6.7779439325       -3.0462665830
 C         2.9917845113       -7.8467997428       -4.1001457494
 C         3.4683682500       -7.1073354857       -5.4726183555
 C         2.9781324990       -7.7226403694       -6.7884403439
 C         4.2322385189       -8.5035990596       -3.3938925102
 C         1.8393945304       -8.9317080337       -4.2504854489
 O         1.0872784754       -6.5433165864       -3.0830946379
 O         4.2906201814       -6.1635810780       -5.4678706706
 C         3.1474425879       -6.7669865057       -7.9404088516
 C         4.1342989060       -7.0239100561       -9.0420315830
 C         4.1277038122       -6.2684372158      -10.3660769342
 C         2.7858355513       -6.2310151310      -10.9977561411
 C         2.5305592592       -5.3587725133      -12.1789562234
 O         4.9669210181       -7.8067988569       -8.7774859851
 O         1.9916166614       -7.1573538263      -10.8041366295
 C         4.9257626379       -4.9262126623      -10.2838744002
 C         4.7847713716       -7.2750231793      -11.5365676543
 H         0.2410488990        3.4549772962       11.5137885848
 H        -0.4905012659        5.2308540517       11.3459297104
 H        -0.5163584390        4.1363616249       12.8880196934
 H        -3.6560197889        1.8674596827        9.6028744706
 H        -4.0874996169        2.8006884810        8.1769055609
 H        -3.8666700546        5.4595164513       10.8504488257
 H        -4.5999980003        4.1377492137       10.0480997967
 H        -3.9602428071        5.6884814969        8.9359348996
 H        -1.8644170707        6.0104441519        8.4032183340
 H        -1.2939099339        6.1705496697       10.0938020036
 H        -0.4285059161        5.2108088710        8.9374732716
 H        -2.1773789762        0.4494488030        7.9663354370
 H        -3.7915702884        0.2878844620        7.4773714677
 H        -3.9885448175        1.2887788324        2.1821915735
 H        -4.5237796070        1.2149916127        3.9025616299
 H        -0.4883110754        0.1228450043        6.2180357851
 H        -0.1262331242        1.4376536629        5.3432858986
 H        -0.3053872137        0.1657520798        4.3250129766
 H        -2.9207909707       -1.1440457484        3.7700078691
 H        -2.2671072368       -1.2776835519        5.3372086827
 H        -3.8435704589       -0.4872903154        5.2296676635
 H        -3.4105619406        3.7968523334        2.8041551343
 H        -4.5911024667        3.7253853870        3.9523960351
 H        -5.1750329085        7.3355644716       -0.1969745264
 H        -3.5513504563        7.3464681233       -0.4520554082
 H        -6.8345807590        5.9861949836        0.5262968784
 H        -7.6359561145        4.4558856746        1.1542483078
 H        -6.6499626330        4.4421711617       -0.2672170523
 H        -4.7223432372        6.3620378012        2.9585741658
 H        -6.3684002558        6.6321411125        2.3864968522
 H        -6.0453633158        5.3437285239        3.6329295188
 H        -5.3343207779        5.0735379358       -1.8031576943
 H        -5.0110234231        6.5269131362       -2.5100516390
 H        -0.2633808270        4.6898202507       -3.1346951719
 H        -0.5965234404        5.0442930229       -1.4245425487
 H        -3.7317023184        2.0846266851       -2.4904598331
 H        -4.9122125194        3.2742660654       -3.0627032730
 H        -4.3339519697        3.2067805069       -1.4545252684
 H        -1.8949037714        2.8640531210       -4.3247591969
 H        -3.5069767788        3.5369354511       -4.9039493659
 H        -2.0448185192        4.6435809179       -4.6758852494
 H         1.7082601413        3.8881734930       -2.1680901827
 H         0.9631451660        2.3255788643       -1.9734259739
 H         3.2335856919        0.6264755581       -1.8070263691
 H         3.7802538386       -0.2309407792       -0.5429774751
 H         4.8454041159        3.4461087195       -0.3978685569
 H         3.7589558234        4.0639393039       -1.5162917806
 H         4.1775502012        2.2402491277       -1.4218856543
 H         3.9182739846        3.7221880343        1.7249769201
 H         2.5893372721        2.6185999564        2.2292547932
 H         4.1222730138        2.2063512974        1.5048164320
 H         0.8778891166       -0.6662255949       -1.7299731826
 H         2.3336986755       -1.6776559311       -1.8688294347
 H         2.1703460615       -6.1193610776        0.3568776824
 H         0.9667095846       -6.1204790387       -0.9327942983
 H         0.4370724558       -4.7359653857        1.3468654016
 H        -0.4395666427       -3.2869320766        1.5106987741
 H         1.3121791938       -3.2719804917        1.9289012999
 H         0.3428078149       -3.4907339193       -2.2909670770
 H        -0.9585153758       -3.8260637913       -1.2400244146
 H        -0.5933663498       -2.2754859448       -1.4845073483
 H         3.5362385833       -7.2875521992       -1.3093796932
 H         3.7745929660       -5.7268649847       -1.9081308405
 H         3.5560289343       -8.6442733665       -6.9542456893
 H         1.9445757066       -8.0898971399       -6.7346797327
 H         3.6692988646       -8.8762847703       -2.4823639631
 H         5.1334687698       -7.9805207302       -3.0983470054
 H         4.5350223289       -9.4365239353       -3.8874209165
 H         1.5974230966       -9.3180703580       -3.2903837006
 H         0.8955350317       -8.4192409275       -4.6975413821
 H         2.2075414251       -9.7264716857       -5.0013057826
 H         2.2092479235       -6.6391723076       -8.3801361784
 H         3.3228168120       -5.8276141265       -7.3836766743
 H         1.6792765177       -4.8230549800      -11.8911036506
 H         3.2404127228       -4.5222617661      -12.3643317887
 H         2.2039167533       -5.8006109720      -13.1619053126
 H         5.9059655231       -5.1243549339      -10.7574921882
 H         5.0482682381       -4.6463153536       -9.2568914444
 H         4.3688793904       -4.1721693192      -10.8606639663
 H         4.6768517000       -6.7806142095      -12.5375681797
 H         5.8103708507       -7.2497211117      -11.2294768921
 H         4.5097398067       -8.3457705293      -11.4407844064
 Na       -1.5957641353        3.1642639251        0.8023575318
