155

 C         0.4543540371        5.5309200604       11.9265672078
 C        -0.5458541502        4.2628230283       11.6780089292
 C        -1.7632407572        4.5218423635       10.6471541632
 C        -1.2015261495        4.0587563718        9.2998967129
 C        -1.8358369148        2.7879701322        8.6693397748
 C        -2.9052545778        3.7334850936       11.3821576559
 C        -2.2407408083        6.0203390987       10.5095048630
 O        -0.2686510591        3.1417900027       12.1466216900
 O        -0.2613153977        4.6543462630        8.7884765084
 C        -1.2622761726        2.2562303449        7.3397801736
 C        -2.1579534787        2.1184840749        6.0675829363
 C        -1.8654134032        0.9269622996        4.9695627309
 C        -2.1384293531        1.3485770675        3.5549280952
 C        -3.5336592768        1.3996173096        3.0903180426
 O        -3.0571937876        2.9291258011        5.8553306125
 O        -1.2321401972        1.7237271251        2.8823652190
 C        -0.4025099971        0.3614774669        5.0507627327
 C        -2.8459803557       -0.2110279476        5.5273369092
 C        -4.1059520705        2.8760269330        3.1266755293
 C        -5.3165372882        2.9902883456        2.1942980104
 C        -5.5858358825        4.4708789753        1.6238339336
 C        -4.3978607945        4.7318199587        0.5142855836
 C        -4.5649912536        5.9584539326       -0.3983835908
 C        -7.0888416915        4.4503602430        1.0816647544
 C        -5.4778604235        5.3126367821        2.9223184961
 O        -6.0534605346        2.0499410446        2.0066236551
 O        -3.4978190715        3.9825918472        0.5625636355
 C        -4.6079539474        5.7572912412       -1.9337985496
 C        -3.2331026390        5.5978921583       -2.4898628984
 C        -2.7315663763        4.1144319420       -3.4958979457
 C        -1.7279190751        3.4866371062       -2.4525077300
 C        -0.3107470003        3.9698412577       -2.6340326322
 O        -2.4610294072        6.4655683765       -2.4490454951
 O        -2.1655943397        2.6699192709       -1.6886021908
 C        -3.8862878783        3.1587898450       -3.7374754745
 C        -2.1506534839        4.9104534237       -4.6671111058
 C         0.6469091687        3.1082464052       -1.7825854604
 C         0.9682718202        3.6918906704       -0.3640321175
 C         2.1672649839        3.0487448393        0.3616630666
 C         1.8269785754        1.4171924680        0.3747335411
 C         2.8858770841        0.3690531592        0.2144332243
 C         3.4756187943        3.1589561970       -0.3920901623
 C         2.4327157978        3.3968176542        1.8029405861
 O         0.1151579416        4.2898461787        0.2401436751
 O         0.6252949314        1.1022423959        0.4559262213
 C         2.3891820888       -0.9443897774       -0.5785297348
 C         1.8023049354       -2.0370999415        0.3069391272
 C         0.8751511947       -3.1102987368       -0.4982584508
 C         1.8944801536       -3.9939651279       -1.4175665305
 C         1.7570618266       -5.5712313503       -1.2692110345
 O         2.2276711409       -2.3315362267        1.4340813393
 O         2.5188478156       -3.3772892271       -2.2492174469
 C        -0.0223505792       -3.9301706664        0.5510583966
 C        -0.0553390435       -2.3929869334       -1.5434449436
 C         2.4360014408       -6.3159692185       -2.5187169630
 C         1.4489396375       -6.9068831579       -3.5520871865
 C         2.1114011439       -8.3286163558       -4.5011726186
 C         2.8260609360       -7.3867180931       -5.6803962019
 C         3.2206180419       -8.0066505139       -7.0026631605
 C         3.1562645339       -9.0952007514       -3.6472959150
 C         1.0468843571       -9.1236788806       -5.0360597011
 O         0.4300937425       -6.2868025145       -3.7889837994
 O         2.9487408277       -6.2537502397       -5.4350994016
 C         3.8374562662       -6.8987414068       -7.8645608164
 C         4.2819462159       -7.5798799861       -9.2536174937
 C         4.1540865149       -6.6044194699      -10.5579348228
 C         2.5928318734       -6.1910959135      -10.6789633587
 C         2.2172086262       -4.9077336421      -11.5078617942
 O         4.4307961361       -8.7888110286       -9.2935474264
 O         1.7013659851       -6.8758457642      -10.3728511988
 C         4.8757962770       -5.2408435032       -9.9968872032
 C         4.7718546000       -7.2619707870      -11.8488581815
 H         0.4573344993        5.6882142500       13.0794451288
 H         1.3208099899        5.1137008739       11.4741837939
 H         0.1119560005        6.4738280942       11.3708213517
 H        -1.8846651383        2.1100348203        9.3869771166
 H        -2.8922747004        3.2020288251        8.5213410970
 H        -3.2142092260        4.5244503758       12.0762201269
 H        -2.5096008097        2.7617990931       11.6560170708
 H        -3.6735134681        3.5850767782       10.7321132137
 H        -3.1247638189        6.0480199611        9.8912841196
 H        -2.7182038393        6.3087019987       11.4403224971
 H        -1.3987662142        6.6427116746       10.1223909613
 H        -0.5180687810        3.0290660932        7.2525380528
 H        -0.8397433690        1.2201240137        7.4168042456
 H        -3.5078052446        1.0855684149        2.0389331718
 H        -4.2513012206        0.7279083104        3.5693800906
 H        -0.0577642238       -0.3702465386        5.8265153587
 H         0.2406360953        1.1951236412        4.8463402028
 H        -0.2427236500       -0.3240681526        4.3009925854
 H        -3.4577349791       -0.6766438368        4.7421978847
 H        -2.2733634631       -0.9986508494        6.0208682777
 H        -3.4671572176        0.0854832211        6.2929106405
 H        -3.3305023864        3.5380267885        2.7124021128
 H        -4.5328365760        3.0667692587        4.2239925238
 H        -5.4879895504        6.4147788593       -0.0653382803
 H        -3.6516512633        6.6607399818       -0.1321629747
 H        -7.3724374332        5.4853109021        0.7946409345
 H        -7.8116849862        4.0750218415        1.8238407321
 H        -6.8655691710        3.8851772044        0.1402432728
 H        -4.4805063406        5.6533194818        2.8758743803
 H        -6.0680921686        6.2214786365        2.7110441402
 H        -5.7200134386        4.7409728264        3.8601596473
 H        -5.1875427742        4.9190027811       -2.1573888064
 H        -5.0265387952        6.6726990262       -2.2744176895
 H        -0.1290984419        3.9277363595       -3.6846316278
 H        -0.4775361932        5.0188005922       -2.3270518784
 H        -3.8412823554        2.7042703211       -4.7559221108
 H        -4.9610806375        3.6100981550       -3.7304240703
 H        -3.9356198726        2.4102065640       -2.8273170236
 H        -1.6189801432        4.2582046792       -5.3538855122
 H        -2.9484220329        5.5249402429       -5.1052016812
 H        -1.4904911076        5.4638359652       -4.0771753462
 H         1.5602829543        2.8329817794       -2.2581757015
 H         0.0734566661        2.2137287624       -1.5218595055
 H         3.6853660198        0.8268553769       -0.3565638261
 H         3.3979385868        0.0201989770        1.2072253066
 H         4.0176785151        4.1129480608       -0.3609700914
 H         3.2213312450        2.9073323228       -1.4364121798
 H         4.1864487236        2.4299081587       -0.1376922268
 H         3.0813003206        4.2506609752        1.6095209847
 H         1.6091616916        3.6672393735        2.5397832359
 H         2.9560106704        2.4440469800        2.1435527458
 H         1.6535148124       -0.6741923947       -1.3950073419
 H         3.2519852359       -1.2864581259       -1.1118271521
 H         2.3508909823       -5.8043034590       -0.2776611322
 H         0.7221428186       -6.0248664691       -1.3847655624
 H        -0.3649731822       -4.8360681590        0.1099826318
 H        -0.8161898121       -3.3086763029        0.9755590021
 H         0.5858204282       -4.3183554753        1.3520166538
 H         0.4810737723       -2.2136617288       -2.5217020510
 H        -0.9475066424       -2.9628772581       -1.8680614280
 H        -0.3506386728       -1.3644492777       -1.2830223608
 H         3.1263100280       -7.1220092263       -2.2153012783
 H         3.1022067257       -5.6014644409       -3.0419967312
 H         4.1494950668       -8.5575304863       -6.7609256692
 H         2.3423503902       -8.5696690517       -7.3716589193
 H         2.8728869024       -9.5834672635       -2.7865822710
 H         3.9932636403       -8.4153619924       -3.3593547670
 H         3.6198348765       -9.8863986454       -4.3103104291
 H         0.3664797068       -9.6156113353       -4.2534026899
 H         0.5606088870       -8.7461833638       -5.9190015271
 H         1.4973330023      -10.0046755515       -5.3887563529
 H         3.0467244034       -6.2798213892       -8.1121486918
 H         4.5488463111       -6.3644313338       -7.3317360169
 H         3.0624124945       -4.1572536953      -11.8750551209
 H         1.5898300181       -4.9320973185      -12.3776961200
 H         1.6739881837       -4.1815661388      -10.8580453430
 H         5.8569246058       -4.9898280360      -10.5377264155
 H         5.1384595767       -5.4236224475       -8.9806371640
 H         4.3142918273       -4.3259945163       -9.9905407468
 H         4.6908761821       -6.6813566286      -12.7376078159
 H         5.8631075311       -7.2993222263      -11.6355076866
 H         4.3197213191       -8.2438215559      -11.9758719558
 Na       -1.4477446145        2.2479028832        0.7620550966
