155

 C         1.0929359357        6.0117928006       11.4377231931
 C         0.4330439257        4.6158766034       11.7606398783
 C        -0.9773163650        4.1271173214       10.8968411905
 C        -0.7034309595        4.4019333183        9.3356045908
 C        -0.7399641863        3.2141841638        8.4033636377
 C        -1.4213469613        2.6679227831       11.2518836593
 C        -2.2217226792        5.1345065948       11.2421866010
 O         1.0354960739        3.9137670209       12.5161011433
 O        -0.4581234525        5.5366874150        8.9983764692
 C        -0.6394825429        3.6050946535        6.9219642935
 C        -1.6753770607        2.6836938674        6.2255609678
 C        -1.3847688353        1.2583635778        5.4188680363
 C        -1.9311619718        1.4401540845        4.0307515717
 C        -3.3266799715        1.4499925235        3.6063107450
 O        -2.8511331301        2.9496284505        6.2316639155
 O        -1.0593923599        1.5844756030        3.1132727416
 C         0.1311877865        1.0019384076        5.3706070883
 C        -2.1480404799        0.0432634675        6.1437542068
 C        -3.9217899628        2.8152600672        3.5366555632
 C        -5.1517774372        2.7364804901        2.5179234029
 C        -5.4940078700        4.1250442850        1.7799349165
 C        -4.4367663325        4.3804459198        0.7233076210
 C        -4.6339295411        5.4650494505       -0.3181599958
 C        -6.9431293694        4.0360548957        1.0908863284
 C        -5.7037278935        5.3335059525        2.7324832177
 O        -5.8028935110        1.7384836259        2.2484138549
 O        -3.4993009225        3.5642390740        0.5955932639
 C        -4.6677580830        5.0113278097       -1.7762759111
 C        -3.3710468004        5.2952530204       -2.5399610275
 C        -2.6173633522        4.2913421687       -3.7769078323
 C        -1.4357351564        3.7678581887       -2.9460417636
 C        -0.1500420108        4.5982124575       -2.8132667523
 O        -2.7226871057        6.3053923981       -2.2762586200
 O        -1.5464881577        2.7893627465       -2.2037026731
 C        -3.5099886814        3.1926629076       -4.3084875609
 C        -2.3587951848        5.3820068201       -4.8382208001
 C         0.9687748642        3.7247806155       -2.2154939661
 C         0.6447577014        3.5207189218       -0.6170312074
 C         1.5364356893        2.6241068601        0.3048872903
 C         0.9868231164        1.0598015210        0.3917408932
 C         2.0754182036        0.0916201478        0.9901806925
 C         2.9726051545        2.7890303188       -0.1879834989
 C         1.2128697098        3.1330325404        1.7311937808
 O        -0.3154140779        4.1712442441       -0.1907675370
 O        -0.0685027320        0.5901356936        0.1973939797
 C         2.4721219978       -0.9867164153        0.0997893710
 C         1.8354208850       -2.2714940904        0.4782189700
 C         0.7848865707       -2.9805489525       -0.5111690832
 C         1.6063391925       -3.6866824296       -1.6762078455
 C         1.0412112941       -5.0183237332       -2.3278669653
 O         1.7390739615       -2.6172324156        1.6166916036
 O         2.5684332763       -3.0343365618       -2.0553886849
 C        -0.3332331162       -3.7768263510        0.1032559642
 C         0.2134638040       -1.7984879062       -1.3040093858
 C         1.6919858250       -5.8440768535       -3.4723239609
 C         1.0633074565       -7.1820941392       -3.7052086673
 C         1.5313756616       -8.0631622763       -5.0194510593
 C         2.4544388466       -7.2184066086       -5.9238183876
 C         2.9220855910       -8.0728395714       -7.1942970374
 C         2.1993366448       -9.3129002744       -4.4829924434
 C         0.1484359307       -8.4101176174       -5.5765948172
 O         0.1500630138       -7.5651622729       -2.9676125899
 O         2.9196103826       -6.1020790427       -5.7896379549
 C         4.1515235705       -7.6683603773       -7.8654319991
 C         4.0833214351       -7.9628349093       -9.3776644566
 C         4.0783413641       -6.7542806465      -10.2931290958
 C         2.6739104304       -6.1063155116      -10.1946234793
 C         2.1186618836       -5.2492908450      -11.5045990962
 O         4.1175049391       -9.0579330964       -9.9246788715
 O         1.9195292730       -6.1544656619       -9.2523197114
 C         5.2762250621       -5.6445437638      -10.0420843416
 C         4.3880261478       -7.2632114204      -11.7903272718
 H         0.4572276253        6.8148105210       10.9366740439
 H         1.5186297742        6.4483105612       12.2940423385
 H         1.7641620524        5.7980599120       10.5076355606
 H         0.2927696933        2.6900663937        8.6185741189
 H        -1.5059290274        2.4651034346        8.4593107900
 H        -1.5648012418        2.7515661419       12.3329995987
 H        -0.4556132965        2.0181608846       11.1673105781
 H        -2.3838317412        2.5297020570       10.6818040314
 H        -2.8855521904        5.1700288972       10.3444797617
 H        -2.7056555589        4.9191937155       12.2024629922
 H        -1.7054901963        6.0805805499       11.4287886948
 H        -1.1373682937        4.6184202034        6.8364175652
 H         0.2680655564        3.4500462544        6.3658551067
 H        -3.3998705548        0.9335067416        2.6476562153
 H        -3.9552756059        0.8356690848        4.3133668692
 H         0.4441708926        0.8429842729        6.4235508139
 H         0.6168722486        1.9013027561        4.9382447838
 H         0.4188082262        0.0512506630        4.7403557366
 H        -2.1919345056       -0.9767923185        5.6688792694
 H        -1.7457961939       -0.1273590298        7.1713125097
 H        -3.0819612777        0.3601126660        6.1284734755
 H        -3.2104576743        3.5370475589        3.1800671228
 H        -4.2432044806        2.8813652050        4.5538986435
 H        -5.6349982421        5.8125636340       -0.0937437066
 H        -3.8102851893        6.1567127458       -0.1395002821
 H        -7.1572076840        4.9894212367        0.7133164886
 H        -7.5727840087        3.4309576300        1.7559564713
 H        -6.8464639711        3.3325723130        0.2314209611
 H        -4.7035599775        5.5732972675        3.2311573590
 H        -6.1125120588        6.1985217120        2.2658077297
 H        -6.4935669258        4.9338498016        3.3619821812
 H        -4.8928043979        3.8516440332       -1.7429505578
 H        -5.4652612975        5.6310859381       -2.1942291423
 H         0.2701448746        5.0421881494       -3.7600094507
 H        -0.4103881162        5.4256752119       -2.1518198151
 H        -3.4538869084        3.0569519496       -5.4036228892
 H        -4.5935457740        3.1605849744       -4.0756806467
 H        -3.1061864158        2.1726304158       -4.0462683535
 H        -1.2781958768        5.2843224349       -4.9982856457
 H        -2.8166694701        5.0328787182       -5.7411861588
 H        -2.8039311726        6.3726804086       -4.7010368583
 H         1.9408768694        4.2761956950       -2.2337166140
 H         1.0799543767        2.8291677475       -2.9089575930
 H         2.7962106104        0.8681271142        1.3488180046
 H         1.5071490814       -0.2320622940        1.7926539805
 H         3.2240306806        3.7700531134        0.0151589526
 H         3.0550515927        2.6573289982       -1.2875327587
 H         3.7103604068        2.0813745195        0.2468774835
 H         1.2528531358        4.2455572104        1.6955295533
 H         0.1364214919        2.8955885112        1.8818514939
 H         1.9988752065        2.7746875774        2.4305198699
 H         2.2058254139       -0.7305166396       -0.9243694554
 H         3.6065465526       -1.1605227576        0.1179470586
 H         1.0835839787       -5.6885227397       -1.4754232320
 H        -0.0120735727       -4.8885223107       -2.6698095069
 H        -0.9521112758       -4.0801909147       -0.6380026970
 H        -1.0263050077       -3.1973272521        0.6842381195
 H        -0.0830821586       -4.5393562756        0.7049905136
 H         0.9966065368       -1.2179044997       -1.8677615937
 H        -0.3419326255       -2.2772770922       -2.1147769275
 H        -0.4226915332       -1.0156908835       -0.8438579495
 H         2.7840418605       -5.9083888019       -3.4809048723
 H         1.5282050803       -5.1657276829       -4.2596553391
 H         3.0601484228       -9.1142805912       -6.9855842244
 H         2.0648466980       -7.9238986827       -7.8275785315
 H         1.7120294088       -9.5969197197       -3.5446152956
 H         3.1272373860       -9.0467145603       -4.0550530850
 H         2.3362692399      -10.0522401404       -5.2689649576
 H        -0.5888739064       -8.6727586790       -4.8840632246
 H        -0.4273427694       -7.4667147095       -5.8710245564
 H         0.2200761064       -9.1590649674       -6.4176586237
 H         4.3483707929       -6.6427200253       -7.6982091587
 H         4.9112396805       -8.1955850324       -7.2681508816
 H         1.4161738693       -5.8746104517      -12.0303196493
 H         1.7731953020       -4.2819926956      -11.2797087082
 H         2.8395204437       -4.9585417573      -12.3307025733
 H         5.2674608469       -5.2623431746       -9.0198234474
 H         5.0196407069       -4.7507919807      -10.5672395218
 H         6.3380621187       -5.9212986934      -10.0918993597
 H         4.2813975561       -6.5124919107      -12.6167234371
 H         5.2531261789       -7.7902949673      -11.7815570112
 H         3.7030540569       -8.0625905127      -12.0199012282
 Na       -1.6124143384        2.2015984061        0.6914192558
