155

 C         1.1059897049        6.1065955946       11.2438635357
 C         0.6671401400        4.7536867488       11.6016121067
 C        -0.6606604557        4.1330341400       10.7674087476
 C        -0.5394768479        4.3957785474        9.3359959801
 C        -0.3303384536        3.2384364239        8.3594246674
 C        -0.6445350769        2.5417475050       11.1692601054
 C        -1.8114658001        4.8393301243       11.4637530747
 O         1.1282626038        3.9681147315       12.3842594461
 O        -0.6152768896        5.5530742180        8.9160315831
 C        -0.6818788139        3.7760276740        6.9459133162
 C        -1.7104983259        2.8268579110        6.2362929715
 C        -1.2477079683        1.5265465041        5.3901358936
 C        -1.8300110275        1.4657029956        4.0135296988
 C        -3.3466449479        1.4531166907        4.0103692757
 O        -2.8574638178        3.1108470973        6.3988732820
 O        -1.1805193943        1.5024372873        3.0073680924
 C         0.3760371412        1.4496665741        5.3840034847
 C        -1.7267080271        0.2886166151        6.3361424645
 C        -3.8891938308        2.8964643504        3.5974041104
 C        -5.1196679692        2.7173122234        2.6420077807
 C        -5.5991782674        4.0373420710        1.7537553703
 C        -4.5663450500        4.2054194586        0.6705261144
 C        -4.6494969185        5.2003754773       -0.4959315572
 C        -6.9182776788        3.5825524522        1.1461092608
 C        -5.6183597744        5.3220088426        2.7061944349
 O        -5.6773559061        1.6433567094        2.4103519707
 O        -3.5576761386        3.4912923896        0.6483791186
 C        -4.3900292837        4.4859825668       -1.8892498520
 C        -3.2306794523        5.2212787542       -2.5744868665
 C        -2.6469694813        4.4229611576       -3.7546781486
 C        -1.4214425374        3.8350414559       -3.0254246500
 C        -0.1179791776        4.5761352084       -2.8945064672
 O        -2.5472274235        6.1016173647       -2.0350244942
 O        -1.5387831478        2.7486137240       -2.4405783538
 C        -3.5652660987        3.2910681197       -4.2342288159
 C        -2.1306055139        5.3508167606       -4.8874121963
 C         0.8917878269        3.9859706601       -1.9138265538
 C         0.4136514683        3.5998276517       -0.5386064266
 C         1.4489815562        2.5747336972        0.2967695078
 C         0.8982162589        1.1107608362        0.3569490040
 C         1.8546437945        0.1431691303        1.0399313744
 C         2.8100434453        2.5928547191       -0.4527341180
 C         1.5403968836        3.2335254871        1.8190050440
 O        -0.6121569521        4.0171730750       -0.0258745957
 O        -0.3022108063        0.7657385663        0.2393397223
 C         2.5344733339       -1.0319412421        0.3042042513
 C         1.5040843276       -2.2033212404        0.4240227692
 C         0.6106077989       -2.7248720408       -0.6652864955
 C         1.5471167375       -3.6105209806       -1.8446215072
 C         0.7740556092       -4.8257122776       -2.3851756834
 O         1.4096983241       -2.7529297156        1.5256039626
 O         2.7004315471       -3.4388758416       -2.1650660495
 C        -0.2823638049       -3.8354954797        0.0185122372
 C        -0.3323744719       -1.7870679610       -1.4875231204
 C         1.4232335822       -5.5180492536       -3.6848380042
 C         1.0201742188       -7.0471778740       -3.8050385017
 C         1.3426011740       -8.0490135547       -5.0842086883
 C         2.4154156048       -7.5631346835       -6.0695444479
 C         2.6964797627       -8.2867894794       -7.2932803340
 C         1.7915527050       -9.3477453556       -4.5086012888
 C         0.0159436564       -8.1761466863       -5.7595253788
 O         0.4846962599       -7.4929112584       -2.8223732469
 O         2.9855340321       -6.4865516147       -5.8067725527
 C         3.9800773019       -7.5407204729       -7.9187123058
 C         4.0171954584       -7.9686849370       -9.3524369922
 C         4.0521280942       -6.8805658369      -10.3712949129
 C         2.6577783489       -5.9949153482      -10.2715578821
 C         2.1343934929       -5.1859843120      -11.4841573198
 O         4.1035703781       -9.1413936744       -9.5919984936
 O         2.2298440978       -5.7150707047       -9.1728862891
 C         5.1065776520       -5.7418804042      -10.0645799234
 C         4.2436911822       -7.4054030895      -11.9105089664
 H         0.6274851250        6.5565992119       10.4044436605
 H         0.9714813219        6.8374401537       12.1102533350
 H         2.0969897508        6.1197235150       10.8599787695
 H         0.6385791884        2.7823222769        8.3338673952
 H        -1.0962724666        2.4928429223        8.6389600430
 H        -0.5382781087        2.4812504028       12.2288889046
 H         0.2161690396        2.1096800280       10.8443476961
 H        -1.5770264922        2.1929428972       10.7831236922
 H        -2.6941467652        4.3960929134       11.0471414439
 H        -1.5760312306        4.7142454068       12.5313385647
 H        -1.8676672652        5.9101214729       11.2852680942
 H        -1.0461555755        4.7844987836        7.1639752665
 H         0.2702414631        3.7418969447        6.3373236858
 H        -3.6841214287        0.7752889173        3.1963937007
 H        -3.7414698595        1.1184209598        4.9278077978
 H         0.6971420313        1.5377722592        6.4502358781
 H         0.8624813210        2.2810162973        4.8233999184
 H         0.6888980424        0.5326319678        4.8785315539
 H        -2.1286282812       -0.4943323983        5.6979980230
 H        -0.8754107214       -0.2400474869        6.7426964873
 H        -2.6405015435        0.5475004648        7.0183354655
 H        -3.0907120987        3.5601644371        3.1321256238
 H        -4.2731042486        3.3584771380        4.5260593175
 H        -5.6390298446        5.7855635192       -0.4734202110
 H        -3.8024183619        5.8973525763       -0.4569197491
 H        -7.3513838287        4.3776364783        0.4918451039
 H        -7.5728244672        3.2005391378        1.9050191824
 H        -6.7073691915        2.7299441896        0.5797033608
 H        -4.5923841394        5.5765667890        2.6470404736
 H        -6.1979845772        6.1351169895        2.2143932217
 H        -5.9615564073        5.1922259851        3.7276684413
 H        -4.0798385964        3.5082269152       -1.7810027669
 H        -5.3208308179        4.6225396820       -2.4938384975
 H         0.3465013092        4.5851403955       -3.8744981207
 H        -0.1676199053        5.6720509983       -2.6267408731
 H        -3.3487965865        2.9405272629       -5.2323124859
 H        -4.5752180606        3.5336253633       -4.3331315224
 H        -3.4620583219        2.4181731990       -3.7326206235
 H        -1.2014906082        5.8468290525       -4.6243381859
 H        -1.9931438519        4.8782272889       -5.8912640613
 H        -2.9584496354        6.0699064479       -4.9906697098
 H         1.7942834231        4.5880060994       -1.7567942345
 H         1.2600366538        3.0820616883       -2.3462392791
 H         2.5128426622        0.8904118656        1.3320485356
 H         1.3699363916       -0.1620837313        2.0130105759
 H         3.2245792515        3.5986502362       -0.8276305645
 H         2.6961265390        1.9209245663       -1.2718313808
 H         3.5904375614        2.1757014335        0.1838521686
 H         2.3518024114        3.8886499707        1.9970496316
 H         0.5829288879        3.6148901127        2.0848230289
 H         1.8778852379        2.4673577925        2.4607486937
 H         2.9733538451       -0.9765557502       -0.6810407682
 H         3.2598908789       -1.2550101524        1.0411220070
 H         0.5913569421       -5.5622326081       -1.6109226606
 H        -0.2464453627       -4.5047012003       -2.5855253881
 H        -1.1039222159       -4.2105627858       -0.6826738416
 H        -0.9703993830       -3.5269059668        0.8334215768
 H         0.3298891561       -4.6976325020        0.4639332320
 H        -0.0415387855       -0.9676766036       -2.0712236775
 H        -1.0598174476       -2.4060483662       -2.0336174632
 H        -0.9992171952       -1.3656423891       -0.7127048408
 H         2.4840231969       -5.5636924521       -3.5015035607
 H         1.3657195917       -4.7661383521       -4.5328299471
 H         2.8315074359       -9.3551650059       -7.0071637955
 H         1.8382524973       -8.2927936732       -8.0655099197
 H         1.0397284992       -9.8109393852       -3.7706700698
 H         2.8385197401       -9.3509164646       -4.0626443951
 H         1.7111654811      -10.0455071978       -5.3365748270
 H        -0.8159850890       -8.2937630178       -5.0112598924
 H        -0.3450613122       -7.2615242633       -6.1383719290
 H        -0.0448177381       -8.9014755736       -6.5506550335
 H         3.9419236560       -6.4094371183       -7.7243601447
 H         4.9029640479       -7.8739438750       -7.3663699000
 H         1.1961804159       -5.6050989317      -11.7961203682
 H         2.0450967502       -4.1007721787      -11.1050210271
 H         2.6693759800       -5.0689572874      -12.3859283286
 H         6.0005718366       -6.0729225920       -9.5631177851
 H         4.7031386787       -4.9504493722       -9.3990906043
 H         5.5967073390       -5.3176380955      -10.9213657946
 H         4.2957078102       -6.5896355990      -12.6028885820
 H         5.0901974540       -8.1514064248      -12.1148918215
 H         3.3777887749       -8.0541958975      -12.1480060068
 Na       -1.7468562329        2.3788922633        1.0289110926
