155

 C         1.4088183128        6.4287899781       11.8288112788
 C         1.9707964423        5.2173408796       11.1659894070
 C         0.8710076646        4.0038041685       10.9935444103
 C        -0.0689890908        4.4244930898        9.7344007607
 C         0.8529369590        4.2909402407        8.3561561777
 C         1.7825292158        2.7931569827       10.7443744224
 C         0.0110165829        3.7604320823       12.2246823842
 O         3.0641961564        5.1778723985       10.7234361404
 O        -1.1994413438        4.8399227732        9.7067642739
 C        -0.1402055062        4.6119127721        7.2046704079
 C        -1.3125051245        3.6579817666        6.9505309180
 C        -0.9083248160        2.2532695651        6.0893536276
 C        -1.5875979029        2.5539507063        4.7855912587
 C        -3.0253210907        2.3426165226        4.6386297500
 O        -2.4546084830        3.8149902642        7.2095268308
 O        -1.0275034472        3.2064572506        3.7871437264
 C         0.5828048756        2.1215804026        5.8222681457
 C        -1.4041712424        1.0027749983        6.8441653478
 C        -3.7802582889        3.2758897863        3.6894883200
 C        -4.9397793939        2.5587129121        2.9295375861
 C        -5.5585188945        3.3337227682        1.7866227324
 C        -4.7341862030        2.9754082119        0.5461717142
 C        -5.1682036697        3.6592619472       -0.7949686165
 C        -7.1056051491        2.8884469280        1.7279007383
 C        -5.5932352093        4.8995834854        1.9311086529
 O        -5.2453146678        1.4069823872        3.2201658560
 O        -3.7185955954        2.3602488791        0.6740143354
 C        -4.4752951614        3.4041533647       -2.1652810099
 C        -3.3215240053        4.4397100112       -2.3921576787
 C        -2.6462808216        4.4898628537       -3.7965784529
 C        -1.1621975704        4.0392960802       -3.4006431902
 C        -0.4073710808        4.8632228345       -2.3531559047
 O        -3.0304711163        5.3117692924       -1.5888964072
 O        -0.7626731517        2.9956689838       -3.9221113638
 C        -3.2345973673        3.5451043964       -4.8268886031
 C        -2.3725143697        5.9423882711       -4.2849125378
 C         0.8009931824        4.0287531144       -1.8409481815
 C         0.5226976647        3.2519726089       -0.5253528723
 C         1.6951663170        2.4290838898        0.2504495131
 C         1.1571125382        0.9150634035        0.3231637783
 C         1.9242434385       -0.3171783211       -0.2336323833
 C         3.0079177723        2.6306243857       -0.5140306649
 C         1.8501847911        2.7974650627        1.7710121288
 O        -0.5706691935        3.4704074060        0.0326548149
 O         0.0035368449        0.7429059643        0.7407286223
 C         1.0029352611       -1.3295607090       -0.8462415756
 C        -0.0286232456       -2.2053368321       -0.1095610405
 C        -0.6866123782       -3.3250245937       -0.9542377960
 C         0.3774918424       -4.0164847202       -1.9911523441
 C        -0.1390407773       -4.3013123581       -3.4509392836
 O        -0.3241141760       -1.9760782287        1.0542094944
 O         1.4876160918       -4.3084215373       -1.5930126097
 C        -1.4859260517       -4.3058562969       -0.1062209401
 C        -1.5840017909       -2.5207676792       -1.8203307856
 C         0.9761947626       -5.0235941968       -4.1869837868
 C         1.0310668565       -6.5991882367       -3.8827250185
 C         0.8135149673       -7.5596471382       -5.1515972602
 C         2.3274860875       -7.7772518509       -5.7158758382
 C         2.7797042397       -7.0252412457       -7.0354381942
 C         0.4218690541       -9.1078277297       -4.7755508640
 C        -0.3565165995       -7.0182280323       -6.1581979865
 O         1.1987014324       -7.0475083576       -2.8201140320
 O         3.1186780922       -8.5687284614       -5.1978237641
 C         3.8729029834       -7.5737823432       -7.9527744111
 C         3.4946385648       -8.0036394415       -9.4130070721
 C         3.9205630291       -7.0236652777      -10.7088742881
 C         2.9750509625       -5.7862996665      -10.5330337502
 C         1.8485694591       -5.5293817017      -11.6572292903
 O         2.6950218691       -8.8679345176       -9.6625346355
 O         3.0760580904       -5.0859553337       -9.5587033868
 C         5.3468480410       -6.5352953282      -10.5191771054
 C         3.7929801929       -7.8203184050      -12.0631436579
 H         2.1135174867        7.2653519126       11.9476029322
 H         0.7388638382        7.1989428289       11.2768974914
 H         0.9077682336        6.3252329568       12.7769812386
 H         1.6381207195        5.0330968239        8.4300488601
 H         1.3191772695        3.1889082109        8.4261965748
 H         2.2619526380        2.5703801582       11.6742451421
 H         2.4151601474        3.0576409207        9.9640101383
 H         1.2277526843        1.9042544848       10.5094103129
 H        -0.0260020165        2.7112896121       12.4040539705
 H         0.4564087406        4.0980993595       13.1872296036
 H        -0.8862530605        4.3681762899       12.0137732291
 H        -0.4750084468        5.5662194316        7.5244025334
 H         0.3746654791        4.8849995001        6.3190997807
 H        -3.2188097394        1.3691906009        4.2126281423
 H        -3.4368149773        2.3548974585        5.6850865397
 H         1.0520157161        1.5862755725        6.6975558168
 H         1.0826370405        3.0613982485        5.5417138450
 H         0.6861484491        1.3501008395        5.1167478477
 H        -2.3057304492        0.7266763109        6.2743670079
 H        -0.6221231928        0.2435754943        6.9483519920
 H        -1.6247954966        1.2590298226        7.9055505666
 H        -3.1595562971        3.7250342500        2.8742198923
 H        -4.3194220287        4.2543940170        4.0511729168
 H        -6.1803397007        3.5048182450       -0.7652862657
 H        -5.1989831722        4.8092880448       -0.7188481161
 H        -7.4069237130        3.0858691342        0.6790976540
 H        -7.7583237937        3.4995437026        2.3481446826
 H        -7.3347307577        1.8665277536        1.8259390577
 H        -4.7473961384        5.4946636734        1.7216145308
 H        -6.3865257872        5.2912906255        1.2646404530
 H        -6.0126497753        5.1586147471        2.9440066565
 H        -4.0577918267        2.4820852164       -2.2288182400
 H        -5.1094767909        3.3530083627       -3.0302928566
 H        -0.0492810595        5.8230423766       -2.7823000789
 H        -0.8978225318        5.1821610828       -1.4659481365
 H        -2.7077334097        3.6532117009       -5.7604738551
 H        -4.2790312985        3.5982160986       -5.0220548212
 H        -3.0324710950        2.5550544808       -4.5235469889
 H        -1.3587352176        6.0602966674       -4.6843845418
 H        -3.0467783811        6.2603392966       -5.1281042279
 H        -2.5586119018        6.7344586894       -3.5632058935
 H         1.7013940135        4.5686860729       -1.6920304789
 H         1.0126430331        3.2345129696       -2.5945883901
 H         2.6123667277       -0.0665960009       -1.0693312598
 H         2.6240854212       -0.7339072305        0.5448309258
 H         3.0922070725        3.7211945242       -0.6096620089
 H         2.8379822060        2.2151609325       -1.5253281135
 H         3.8889170660        2.1378748813       -0.1906351122
 H         2.1906291788        3.7889921212        1.8500078103
 H         0.8854688147        2.8227620481        2.1796007043
 H         2.3232288492        2.0185959662        2.3261082717
 H         0.4179199298       -0.7416546685       -1.5848962435
 H         1.5118074506       -1.8582088790       -1.5547255948
 H        -1.1378352775       -4.7425696878       -3.6154784397
 H        -0.3433419582       -3.2606579479       -3.8505776959
 H        -2.4550753741       -4.6322412327       -0.6832424144
 H        -1.8671496928       -3.9161569841        0.8900920179
 H        -0.9219049255       -5.2624062753        0.1158664099
 H        -0.9461237899       -1.7009363379       -2.2048052448
 H        -2.0869293615       -3.0941683438       -2.6392736190
 H        -2.3408018574       -2.0791252287       -1.1664979381
 H         1.8755324192       -4.5566529635       -3.7292409271
 H         0.9184569436       -4.9147459524       -5.2030729227
 H         1.8139499532       -6.7192017688       -7.6140710190
 H         2.9369540162       -5.9883349512       -6.5998282347
 H        -0.4533151991       -9.1621805286       -4.1134250863
 H         1.1633096747       -9.5759799853       -4.1126922992
 H         0.2705185981       -9.8020260104       -5.6476075655
 H        -1.3866074115       -6.8833271445       -5.6398730011
 H        -0.1555691126       -6.1510258178       -6.7539283465
 H        -0.5267520901       -7.7841739022       -6.8406416692
 H         4.6496401412       -6.8044876874       -7.8465254580
 H         4.2143437467       -8.4363474948       -7.4702446604
 H         1.3650537204       -6.3503484964      -12.1678936696
 H         0.9283957141       -4.8909559388      -11.3733985970
 H         2.5396926090       -5.1545294272      -12.3578638681
 H         6.0827036965       -7.0332390999      -11.2051490493
 H         5.6950324467       -6.7162316236       -9.4813802851
 H         5.4479195757       -5.5332816326      -10.8201934039
 H         3.6220017833       -7.0875333053      -12.8281442447
 H         4.7619978635       -8.3882842147      -12.3717124027
 H         2.9092958349       -8.4481693123      -12.1207578996
 Na       -1.3893061855        2.1011709317        1.7144917250
