155

 C         3.2998910804        6.2651818317       12.7688413505
 C         2.6238298381        5.9170932748       11.4025976548
 C         2.7399853050        4.4577917047       10.9121003604
 C         1.4354582432        4.1876644176        9.9925050377
 C         1.4521305493        4.6949680228        8.5097103529
 C         4.0294738026        4.4028523069       10.0332520979
 C         2.7839522691        3.5569477050       12.1944659281
 O         2.1860876740        6.8421447165       10.6759680507
 O         0.4692007100        3.6390634034       10.4676237848
 C         0.0514252123        5.3019825114        7.9910004833
 C        -1.0648371552        4.4045808868        7.5280055889
 C        -0.8282536688        3.1435399324        6.5400100089
 C        -1.7312017655        3.3304545706        5.2112560608
 C        -3.0883140890        3.9004306627        5.1423167113
 O        -2.1891394888        4.7084357147        7.7969422030
 O        -1.1445637966        2.9267294156        4.1279972851
 C         0.6760617519        2.8638945232        6.1290064314
 C        -1.4651628723        1.8873766745        7.3338205435
 C        -3.8063356707        4.0479967157        3.6981675273
 C        -4.1478263113        2.7211207602        3.0942867141
 C        -5.0246847412        2.5247444758        1.7568345768
 C        -4.1759439251        2.1012550916        0.5770970446
 C        -4.9097231823        1.8539024764       -0.8053694349
 C        -6.0239992256        1.3888706678        2.1035434227
 C        -5.8110438333        3.7815207518        1.3647589711
 O        -3.8474157738        1.6921478800        3.6154798145
 O        -2.9840289766        1.8490329434        0.6785637988
 C        -4.0624350655        2.2877523745       -2.1046619401
 C        -3.9642283329        3.8533885012       -2.2781071302
 C        -2.8123828864        4.4770076521       -3.0880522557
 C        -1.3667121160        3.7791775194       -2.6059970720
 C        -0.3351992301        4.7389399548       -2.1521751193
 O        -4.7483358008        4.6125192426       -1.7791689342
 O        -1.1665532208        2.5414978630       -2.7824026525
 C        -2.9243213030        3.8469982826       -4.5874287918
 C        -2.7425900209        6.0043647769       -3.0903503671
 C         0.9241691211        4.0313120189       -1.6057863303
 C         0.8694933437        3.2936261174       -0.3381664587
 C         1.5888568171        1.8673256567       -0.3096816267
 C         0.4225049231        0.7350121884       -0.3956228830
 C         0.2660950145       -0.2476454906       -1.5570396026
 C         2.7279579573        1.5352116898       -1.3808356822
 C         2.0919352783        1.5958122089        1.2416751053
 O         0.3580516661        3.7365934701        0.6759831223
 O        -0.4453080582        0.8797422670        0.4706291684
 C        -1.1917042445       -0.6377111889       -1.5950902658
 C        -1.1650796903       -1.9737016315       -0.7772059863
 C        -1.2792053576       -3.3316271292       -1.7568149654
 C        -0.1130177987       -3.5142412954       -2.7098673566
 C        -0.4858510035       -4.4192044659       -3.8578998802
 O        -0.8760203717       -2.1189498383        0.3914509531
 O         1.0367682120       -3.2720211965       -2.4351117652
 C        -1.2364654050       -4.7082918879       -0.7985252268
 C        -2.6250798512       -3.3223138284       -2.4823639128
 C         0.8097935554       -5.3206251736       -4.2555994128
 C         0.4123311217       -6.8359473327       -4.2087350620
 C         0.3007930160       -7.7005302024       -5.5568327456
 C         1.7236539661       -8.0071241757       -6.1883892631
 C         2.8017103199       -6.9894517909       -6.3115706572
 C        -0.4426170547       -8.9908559725       -5.1684176093
 C        -0.4606065438       -6.9129677897       -6.6062461341
 O         0.0892145888       -7.3423511338       -3.1641752155
 O         1.8907156594       -9.1976073670       -6.4858503947
 C         3.5688220778       -7.2692061289       -7.7255849092
 C         2.7118057195       -7.3162456191       -8.9431973336
 C         3.5274231507       -7.2737543571      -10.3424504670
 C         3.2800904444       -5.9049011710      -10.8830271899
 C         1.8780585274       -5.2788620463      -11.1448160550
 O         1.5295808206       -7.3385606440       -8.9145008401
 O         4.1601041482       -5.1090777458      -11.1017923572
 C         5.0950911982       -7.4717700201      -10.2754212822
 C         2.8335849841       -8.2987957845      -11.1371396193
 H         3.5376913196        7.2893778016       12.3923610575
 H         2.4686446227        6.0993619232       13.5320961681
 H         4.1800492829        5.6753154393       12.8264081489
 H         2.2696350606        5.5701258090        8.3820450824
 H         1.7743999621        3.9417294251        7.8713913814
 H         4.9356896247        4.9192220100       10.4760255452
 H         3.7547815312        4.6761298293        8.9719922091
 H         4.5932886229        3.4830881377        9.9310536633
 H         2.7046413775        2.4570124451       12.1590084342
 H         3.7773674774        3.6587647749       12.7111683850
 H         1.9540261607        3.8195683434       12.8035822460
 H        -0.2669848032        6.0503080131        8.7710388085
 H         0.5052300871        5.7807324504        7.0984350882
 H        -3.6722304842        3.1946462687        5.7748041815
 H        -3.3045423098        4.8731141990        5.6581061536
 H         1.1992896729        2.6605895559        7.0364872068
 H         1.2719931750        3.6969548706        5.9390965790
 H         0.7738015451        2.1255529484        5.3282687194
 H        -1.5540876765        0.9707764911        6.8129267161
 H        -0.7465148050        1.6735861663        8.0690492866
 H        -2.5283916902        2.1299050664        7.8130387037
 H        -3.0768878085        4.4537977884        3.0895240006
 H        -4.5921200859        4.7635314194        3.8303900270
 H        -5.0924171397        0.7735746296       -0.7589309329
 H        -5.8121327234        2.3964883473       -0.8467257628
 H        -6.4570327742        1.5114914545        3.0768324275
 H        -5.7848224275        0.3171955312        2.2487303025
 H        -6.8226280209        1.4181977528        1.3465035861
 H        -5.1407347654        4.6119799344        1.1127777595
 H        -6.3968370305        3.6709748228        0.4465004881
 H        -6.3913950591        4.2559537306        2.0729623859
 H        -3.1022132317        1.7240746263       -2.0727094425
 H        -4.7002611675        2.0075040887       -3.0063571798
 H        -0.1281736024        5.3159290482       -3.0686287972
 H        -0.9039130959        5.3634637237       -1.4173175048
 H        -1.8636361887        3.7523204604       -4.8427600645
 H        -3.4658700446        4.5028291456       -5.3288709824
 H        -3.5001639759        2.8737949968       -4.4573014497
 H        -1.6893381679        6.3487611667       -3.1835962609
 H        -3.3617419833        6.5656849990       -3.7770931687
 H        -3.1428370878        6.2847978076       -2.0947097429
 H         1.6796773756        4.7650234760       -1.5557635605
 H         1.2635159771        3.3839460582       -2.4429614908
 H         0.5311143885        0.1583091047       -2.4583497666
 H         0.8579700884       -1.2269960734       -1.4500597185
 H         3.7219312920        2.0268217809       -1.2343616534
 H         2.5319055678        1.7231853774       -2.3831750812
 H         2.8224772542        0.4732689154       -1.2415044639
 H         1.9410964840        2.4639798834        1.8800783417
 H         1.8248329572        0.6600276474        1.8498644073
 H         3.2099816430        1.4083047185        1.2895356412
 H        -1.8246461671        0.0992373530       -1.1166707631
 H        -1.3402316472       -0.9641619167       -2.6346160365
 H        -1.2090977700       -5.1891188368       -3.6113207234
 H        -0.6690681546       -3.8245901565       -4.7400921598
 H        -0.8654621490       -5.4617497925       -1.4420350226
 H        -2.1961913809       -4.8417094981       -0.4054003293
 H        -0.6075517209       -4.6792268493        0.1061515399
 H        -3.2652282586       -3.1558106510       -1.6753673829
 H        -2.6304418351       -2.5322223663       -3.2676288830
 H        -2.8081986569       -4.2274802563       -3.0412617810
 H         1.7049582293       -5.2519071558       -3.5713411628
 H         1.2185571299       -5.0371383637       -5.2680523412
 H         2.3222735088       -6.0319902994       -6.3839151888
 H         3.4840065676       -7.1834198215       -5.5399457449
 H        -1.4882979740       -8.7392416109       -5.0604540921
 H         0.1025936691       -9.4874755213       -4.3937795630
 H        -0.5490571324       -9.6340526340       -5.9945713120
 H        -1.4011480150       -6.6010394576       -6.3013660215
 H         0.2472275236       -6.1677160412       -6.8820344572
 H        -0.5756777831       -7.6196565376       -7.4802162013
 H         4.4664948193       -6.5878956778       -7.8161215421
 H         3.9981694969       -8.3447349635       -7.6264541978
 H         1.1013105225       -5.8840664890      -10.6862918350
 H         1.8259835751       -4.2874268709      -10.9198986267
 H         1.6773128704       -5.2929999956      -12.2995575747
 H         5.4438803304       -8.4639540722      -10.4299804838
 H         5.2806319921       -7.1754399018       -9.2675701646
 H         5.5274671789       -6.7117312041      -11.0060284279
 H         3.4330227091       -8.7088018192      -11.9761048595
 H         2.6406589490       -9.1891292689      -10.5712191344
 H         1.7950447275       -8.0188915629      -11.3995178094
 Na       -1.2710094919        2.7103545926        1.8193315156
