155

 C         3.8713340762        6.7099569149       11.8866947388
 C         2.7168279383        6.0861762197       11.0058807975
 C         3.1769432321        4.8284457458       10.0459061580
 C         2.0371598138        4.8205653949        9.0433536724
 C         1.8420958572        6.0220339973        8.0509771289
 C         4.5594665848        4.8767756953        9.4486590863
 C         3.1193345546        3.6239254333       10.9176544383
 O         1.4985274233        6.3919869283       11.1603071427
 O         1.2341715232        3.9275188635        9.1094164948
 C         0.7117036524        5.7137164342        6.9920400326
 C        -0.2822458157        4.6418515864        7.5069770628
 C        -0.1852618247        3.2002823957        6.7470051889
 C        -0.9586954897        3.3052885041        5.3300826067
 C        -2.2673651792        4.1018147739        5.4495539095
 O        -1.2289726947        4.9126361692        8.2908826880
 O        -0.5454204031        2.7049190197        4.4256233306
 C         1.3243726999        2.9242395761        6.3910560021
 C        -0.8429950240        2.2723051003        7.6647915372
 C        -3.3404651210        3.9049306313        4.2135954124
 C        -3.4477456658        2.5265834047        3.5467997298
 C        -4.5501962423        2.2910254352        2.4940724454
 C        -3.9927520152        2.4731722111        0.9814728308
 C        -4.9642592576        2.0393263629       -0.0760194588
 C        -4.9717248675        0.8303853117        2.6625806652
 C        -5.7956584816        3.2781967746        2.5525155509
 O        -2.6456025243        1.5969338966        3.7401678301
 O        -2.9017111770        2.9501970456        0.7359433567
 C        -4.4983763585        2.5374947367       -1.4462653907
 C        -4.0285008715        4.0603540682       -1.5368963686
 C        -2.9594049920        4.4546937192       -2.6417360974
 C        -1.6278348426        4.0347247708       -1.9293436977
 C        -0.4970007799        4.9679984278       -1.5387188981
 O        -4.4119595885        4.8604255274       -0.7067057373
 O        -1.4393387824        2.8093720555       -1.8063772284
 C        -3.1084083051        3.7443206588       -4.0063191221
 C        -3.0618920279        6.0585758336       -2.7480581935
 C         0.8057073538        4.2004845427       -1.5988879416
 C         0.6475036938        3.1559737779       -0.4039658676
 C         1.3097443770        1.6878958332       -0.5225066824
 C         0.0089951828        0.5712567466       -0.2929833703
 C        -0.2409366781       -0.3889123852       -1.3786317950
 C         2.1632435197        1.3377012225       -1.8433202778
 C         2.3647637638        1.7377959417        0.5969945938
 O         0.1840731427        3.6125923403        0.6244026615
 O        -0.6835176734        0.6669972477        0.6917227371
 C        -1.5077315109       -1.3039357463       -1.3081048518
 C        -1.2556221430       -2.7223995894       -0.9135312638
 C        -2.0119013655       -3.9315383536       -1.7824271263
 C        -1.5059209730       -3.6357629378       -3.2911236419
 C        -1.2873098772       -4.9435663556       -4.1869201415
 O        -0.4106735458       -3.1366869905       -0.2084002273
 O        -1.5861080943       -2.5487949707       -3.7966767102
 C        -1.4542055008       -5.3392258228       -1.3177758668
 C        -3.5533069052       -3.8848142174       -1.7905849000
 C         0.2020870784       -5.4193055542       -4.4800313231
 C         0.2256718003       -6.8955975833       -4.6502961072
 C        -0.1181134041       -7.6066214717       -6.0506594475
 C         1.2433871012       -8.2664482659       -6.2758647199
 C         2.4794645922       -7.4310701365       -6.1459061406
 C        -1.1967840542       -8.7397653935       -5.7650629484
 C        -0.7653898928       -6.6901970232       -7.0466389439
 O         0.4713539639       -7.6743316561       -3.7048796626
 O         1.3457049223       -9.4722920683       -6.3850117357
 C         3.3829969819       -7.3099790385       -7.3710772364
 C         2.7302549678       -6.6912306871       -8.8579241695
 C         3.0350352667       -7.3169443978      -10.2750281635
 C         3.6159020235       -6.2464914942      -11.2115651696
 C         2.8683921987       -5.2796391112      -12.0673803263
 O         2.2122238532       -5.6225167214       -8.7899130647
 O         4.7886838759       -6.1087771055      -11.3593795279
 C         4.0289219393       -8.5279131898      -10.0675281503
 C         1.5225316542       -7.7533481709      -10.6358136042
 H         4.6356202796        5.8776292552       12.1663812481
 H         4.3918323272        7.6092463108       11.2945145448
 H         3.3413483304        7.2367181699       12.6423219584
 H         1.4935372671        6.8529103110        8.7142325067
 H         2.8402283024        6.3116447674        7.6540442991
 H         5.4241330523        5.1276841598       10.1892221916
 H         4.7795526500        5.7518436602        8.7290911311
 H         4.7895211598        3.9469063395        8.8826688935
 H         2.9565284196        2.7721586947       10.2533254283
 H         4.0466891276        3.4885249431       11.5189244486
 H         2.3743105986        3.5061192455       11.6740655932
 H         0.2336647471        6.7604523182        6.8720277562
 H         1.1794009712        5.5656669503        5.9913682720
 H        -2.7780046832        3.7823044321        6.3799880321
 H        -2.3296720718        5.2095969921        5.6642122455
 H         1.6133257735        1.9906803204        6.8639625513
 H         2.0626836225        3.7254453261        6.4390729265
 H         1.4156042528        2.6800277372        5.3287644477
 H        -0.7385923529        1.2613294855        7.3036588871
 H        -0.5555725728        2.4165091607        8.6780785814
 H        -2.0258052801        2.4492098613        7.7009205488
 H        -3.3849890550        4.7186945193        3.5501382474
 H        -4.1879541683        4.0557167199        4.8743935491
 H        -5.1570910736        1.0515697582        0.0922777947
 H        -5.9656726510        2.4969462712        0.2335536820
 H        -5.8372718142        0.4105011954        2.1138684649
 H        -4.8624225931        0.5285760773        3.7007801047
 H        -4.1101037945        0.2435707584        2.3772188512
 H        -5.4415535710        4.2345752584        2.2501862794
 H        -6.5566020411        2.9431383069        1.7871736172
 H        -6.2941711274        3.3607373470        3.4822153906
 H        -3.8261070469        1.8502530484       -1.8256329972
 H        -5.2882263233        2.4709819133       -2.1854869132
 H        -0.7250602326        5.9603250683       -2.0663956785
 H        -0.6759958872        5.2788809445       -0.5134227645
 H        -2.1288352997        4.0822296114       -4.4960215479
 H        -3.9197878084        4.2274799044       -4.5034800396
 H        -2.9692830490        2.6699197237       -3.8748817489
 H        -2.4648264574        6.5362002966       -3.4908815720
 H        -4.1089078176        6.1635629347       -3.0886412948
 H        -3.0031113838        6.6174855445       -1.7966786610
 H         1.6846466148        4.8674426808       -1.4910556649
 H         0.9028193045        3.7190490410       -2.5567515677
 H        -0.1549674352        0.0774185020       -2.3959222841
 H         0.6984075530       -1.0248839956       -1.3502204089
 H         3.1994655776        1.7768123496       -1.7461478761
 H         1.6059703092        1.7415534042       -2.6428589308
 H         2.2348683040        0.2912182181       -1.9648164258
 H         3.0117414674        2.5683783423        0.3708393522
 H         1.7928603013        1.9762602524        1.5482481850
 H         2.8610426092        0.7566541748        0.8709575189
 H        -2.3808946830       -0.8979082480       -0.7996272759
 H        -1.9831799726       -1.3961912157       -2.2353282383
 H        -1.6839381812       -5.8433067347       -3.7697002204
 H        -1.9286264514       -5.0413557944       -5.0559242871
 H        -2.2048943126       -6.0937621705       -1.5140389748
 H        -1.3360083901       -5.5336050568       -0.2846116194
 H        -0.4642691780       -5.5573113355       -1.6942097496
 H        -3.8766905529       -4.3205724343       -2.7377840910
 H        -3.9927600230       -4.4987515081       -0.9334392149
 H        -4.0076445384       -2.8794049313       -1.8190333761
 H         0.7315831464       -5.3100957439       -3.4658202663
 H         0.6278210108       -4.7555890905       -5.1644830880
 H         2.3889932796       -6.4917998497       -5.5995386751
 H         3.0941133877       -7.9720033275       -5.4614534505
 H        -1.9830489385       -8.3095459062       -5.1128750301
 H        -0.9157575440       -9.5368177924       -5.1410978045
 H        -1.5044172727       -9.2198337140       -6.6200454451
 H        -1.6652882075       -6.3380212851       -6.6058485876
 H        -0.1499318586       -5.9334529226       -7.4235274294
 H        -1.2630457123       -7.2843994271       -7.8608873882
 H         4.4589925754       -6.8629356580       -7.3253624744
 H         3.5480941791       -8.3236421027       -7.7590552881
 H         1.8078678245       -5.3237409584      -11.9102510356
 H         3.1444750801       -4.3080287411      -11.8412355780
 H         3.0985428917       -5.6704595452      -13.1476651414
 H         3.5762807937       -9.2786443764       -9.4430832422
 H         5.0473252035       -8.3074707245       -9.6806979859
 H         4.2327223308       -8.9993121887      -11.0310892784
 H         1.3921614127       -7.7108462752      -11.6902690345
 H         1.2337008888       -8.7316672925      -10.1176482510
 H         0.7245510741       -7.0396385631      -10.3454683135
 Na       -1.0211590179        2.3741493090        2.1785360934
