155

 C         4.2323827112        6.8355087027       12.0016262254
 C         2.9660049244        6.3057135225       11.1697201210
 C         3.3785060517        5.1761967228       10.0471065998
 C         2.2352036004        4.9851132113        9.0363752281
 C         1.8581844756        6.1476164944        8.0743715921
 C         4.6750738851        5.5086122863        9.1688510741
 C         3.6758283244        3.8214687215       10.8085415183
 O         1.8144823121        6.7255218768       11.3129454701
 O         1.5883612382        3.9948469337        8.9719792537
 C         1.1898085303        5.6676106576        6.7988145207
 C         0.1145533016        4.6117867645        7.0499288368
 C         0.2141183353        3.1957869013        6.5305713498
 C        -0.5699434649        3.3270948235        5.1592709855
 C        -2.0367864323        3.4953519241        5.2418670544
 O        -1.0268394908        4.9381648513        7.4122096584
 O         0.1108077918        3.2614224684        4.2191938235
 C         1.6356649791        2.5896241268        6.2239229242
 C        -0.5872598123        2.1781299822        7.4339865833
 C        -2.8226119329        3.5915821958        3.9971378891
 C        -3.4567039139        2.1920641790        3.7797189485
 C        -4.7867305518        2.0094671611        2.8692078193
 C        -4.2001611467        2.4653859714        1.3839271764
 C        -5.2637170237        2.4584621563        0.2708107975
 C        -5.2087489345        0.4660028910        2.9328512497
 C        -5.8600135568        2.9934252581        3.2953325172
 O        -2.8453655445        1.2091137746        4.1443784937
 O        -3.0341422517        2.7935299505        1.3650395379
 C        -4.5635992171        2.8382358276       -1.1436291475
 C        -3.9557853644        4.2031394356       -1.2999197497
 C        -3.0323798889        4.6384009445       -2.5176123254
 C        -1.4782564242        4.1141229481       -2.3177144312
 C        -0.4031261901        5.1310445846       -1.8512663209
 O        -4.2106718033        5.0084922052       -0.4700629053
 O        -1.2882325075        2.9017705806       -2.5189716324
 C        -3.6239525511        4.0125222002       -3.8362505394
 C        -3.1737051014        6.1378616657       -2.5835616179
 C         0.9506489963        4.3776784020       -1.4232461034
 C         0.6489884589        3.2647164213       -0.2765194896
 C         0.9482672067        1.7064744482       -0.5372548631
 C        -0.3864333363        0.7692918999       -0.3914306090
 C        -0.2946653229       -0.5151630738       -1.1356636451
 C         1.9637985682        1.5558038197       -1.6918824319
 C         1.7264219046        1.1594244640        0.7344005332
 O         0.1438231803        3.6801496521        0.7674864607
 O        -1.1643871118        0.9902157200        0.5253448139
 C        -1.3686341242       -1.6453967958       -0.9278847985
 C        -1.0130959802       -3.0874267813       -0.9879378605
 C        -2.2119637473       -4.0058637146       -1.5099565759
 C        -2.2204550072       -3.9304367326       -3.1280571019
 C        -2.1392804011       -5.1796103928       -4.1179908865
 O         0.0749109064       -3.5492426926       -0.7606925971
 O        -2.1688662709       -2.8678947739       -3.7267491759
 C        -2.0603074888       -5.5139142790       -1.1590343954
 C        -3.5630376024       -3.4846813057       -0.9850382261
 C        -0.7885392940       -5.2317843358       -4.8654961299
 C        -0.1488683517       -6.6285697640       -4.8536377927
 C        -0.2263332184       -7.6255503221       -6.0755620130
 C         1.3225956898       -8.2675093218       -6.4592780350
 C         2.5442717230       -7.4430417870       -6.3186238366
 C        -1.2013311924       -8.8117088973       -5.8097740576
 C        -0.4508117291       -6.7883988290       -7.4544339735
 O         0.4637094236       -7.0018838860       -3.8775962584
 O         1.2780510546       -9.2052324675       -7.2000334550
 C         3.5024817174       -7.5295608666       -7.6429646873
 C         2.9744713323       -6.8231014651       -8.8737923675
 C         2.8342225138       -7.5099071526      -10.3604268263
 C         3.7154692855       -6.4852798119      -11.1354787347
 C         3.1044754462       -5.3259235670      -11.8482051631
 O         2.6427850993       -5.6929678921       -8.8440039908
 O         4.9271710766       -6.5739105571      -11.0737581458
 C         3.3425364241       -9.0192039980      -10.3554441256
 C         1.3009697642       -7.3803034719      -10.6781784876
 H         5.0738178942        6.1894410142       11.8093128182
 H         4.3615982252        7.9371670331       11.5736426007
 H         3.8367093921        7.2313474697       12.9781342683
 H         1.0501136399        6.7583867174        8.5927777176
 H         2.7866226014        6.6076758604        7.8315014228
 H         5.6983978202        5.2190776457        9.6615526521
 H         4.5374010747        6.5399388746        8.8140645444
 H         4.8146664854        4.9086040478        8.2693909430
 H         3.9822660046        2.9866222251       10.2051012591
 H         4.3399899670        4.0816258352       11.6618916912
 H         2.8093241020        3.3298931204       11.1129839574
 H         0.9060790520        6.4846059627        6.0940766447
 H         2.0183966290        5.2624131155        6.2416469894
 H        -2.5954747487        2.8539892165        5.9376445490
 H        -2.0020682552        4.4747479326        5.8570602505
 H         1.6927179263        1.5069481678        6.0414147889
 H         2.2527325168        2.6507682489        7.0637539338
 H         2.0966065537        3.1682376532        5.4339226446
 H        -1.1674486646        1.4513268035        6.8884682529
 H         0.1544432760        1.8100832204        8.1438708664
 H        -1.3579684451        2.6053517340        7.9952197368
 H        -2.2511411296        3.9188585177        3.2161781992
 H        -3.6377129833        4.3108986925        4.0130545529
 H        -5.8122937308        1.5720510202        0.2118357404
 H        -6.0098081802        3.2811739269        0.5727549640
 H        -5.8542352697        0.2298334347        2.0994591283
 H        -5.6811432528        0.3534080955        3.9360918327
 H        -4.3981415631       -0.2754646576        2.8690120848
 H        -5.6028426586        4.0293221070        3.1361212307
 H        -6.7043013181        2.6811139530        2.6494907692
 H        -6.1536863982        2.8695830160        4.2870524877
 H        -3.9256565519        2.0232347523       -1.5365446147
 H        -5.4256057998        2.7676300098       -1.8236856543
 H        -0.0868055475        5.8439709874       -2.6997024816
 H        -0.7758107357        5.8094832874       -1.1297861669
 H        -3.0442103004        4.4721704186       -4.6062223061
 H        -4.6174404601        4.3485832463       -3.9294965696
 H        -3.5387410317        2.9308111723       -3.7150642004
 H        -2.6052491111        6.6729861780       -3.2996501131
 H        -4.1779342097        6.5212155753       -2.4972854566
 H        -2.7824996230        6.3855534520       -1.6065063414
 H         1.6089259010        5.1007561063       -0.9685932851
 H         1.3940830242        4.0668343675       -2.3494740894
 H        -0.1361581939       -0.3320953526       -2.1927581693
 H         0.7425805743       -0.8120753855       -0.7761593607
 H         2.2790281819        2.5249693493       -2.1923155380
 H         1.6908226720        0.8218117614       -2.3885051852
 H         2.7844388105        1.1418626233       -1.1614949349
 H         2.6063770706        1.6857905116        0.8852801363
 H         1.1938726230        1.0321567996        1.6679955145
 H         2.0497871213        0.1894086807        0.3751049367
 H        -1.8784531259       -1.4387691950        0.0467953059
 H        -2.2395808979       -1.6067527125       -1.4788894158
 H        -2.3207192596       -6.2404001764       -3.8135443749
 H        -2.9288790827       -4.8453119017       -4.8738265036
 H        -2.7599715191       -6.2632879214       -1.7159116216
 H        -2.0199706901       -5.7114880517       -0.0671368265
 H        -0.9895378794       -5.8430951497       -1.3543322516
 H        -3.9266701593       -2.6475224023       -1.5667781542
 H        -4.4771669967       -4.1410201798       -1.0859262897
 H        -3.4597708313       -3.3302235017        0.0930913290
 H        -0.1658983575       -4.3915221838       -4.4100476554
 H        -0.7617438716       -4.8347910380       -5.8850625401
 H         2.2214719082       -6.4561055589       -5.8790094442
 H         3.2196088739       -7.7588783373       -5.5551081225
 H        -2.2561629566       -8.4475227998       -5.8698588024
 H        -1.0806790295       -9.1595832128       -4.7570026232
 H        -1.0055836515       -9.7282497002       -6.3229665513
 H        -1.4509822377       -6.5350008476       -7.5110290931
 H         0.1341743375       -5.8714196250       -7.5636169260
 H        -0.1717971224       -7.3621816575       -8.3826314428
 H         4.5620003638       -7.0886117688       -7.4178910795
 H         3.5783931923       -8.6223148706       -7.8884227315
 H         2.5661296120       -5.7799699893      -12.7272997875
 H         2.4421158513       -4.6779894349      -11.3334522248
 H         3.9785194984       -4.8720228860      -12.2111459378
 H         2.6008528614       -9.7090566620      -10.0482425709
 H         4.1387595429       -9.2543462775       -9.6461443835
 H         3.6895820708       -9.3971871331      -11.3436199506
 H         0.9470237671       -7.5816746701      -11.7099083772
 H         0.7652578139       -8.1049672255      -10.0334135120
 H         0.9239145145       -6.4133048065      -10.2548216316
 Na       -0.9386416278        2.4263888615        2.5139273161
