155

 C         4.4890595975        7.4837367003       12.3370951220
 C         3.6995477722        6.9224656665       11.0765533082
 C         4.4688975862        5.8672463019       10.1682097474
 C         3.4126431021        5.1993904480        9.1333580374
 C         2.2488739279        6.0996548564        8.4674750521
 C         5.6015843570        6.6496796136        9.3211316267
 C         5.1709457809        4.7026527113       10.9856251016
 O         2.6054525822        7.4170639495       10.8368682017
 O         3.4924774042        4.0295916449        8.9896880403
 C         1.9803339558        5.4701973777        6.9766448403
 C         0.6326388232        4.8064252638        6.8367907589
 C         0.7322332847        3.2934196416        6.1163197904
 C        -0.5974213937        2.9559621614        5.3910700265
 C        -2.0538583735        3.0195464970        6.0377197031
 O        -0.4526685065        5.1991109250        7.2009884689
 O        -0.4378879441        2.5509451149        4.1683090557
 C         1.9069817539        3.1916393818        5.0781111747
 C         0.8860377631        2.2696015078        7.2114196990
 C        -3.1533272190        3.0466035888        5.0332929290
 C        -3.5142134618        1.8564699495        4.1015210922
 C        -4.7855791208        2.1305550795        3.2417895738
 C        -4.3849174082        2.9518571177        1.9099218240
 C        -5.4328494645        3.7079731706        1.1645606168
 C        -5.2788169532        0.7815951852        2.6826819049
 C        -5.8672194328        2.8975687028        3.9911525176
 O        -2.8037202601        0.8671139567        4.0145804857
 O        -3.3154331193        2.7431765534        1.3566159592
 C        -5.0877891356        3.8604727455       -0.3658965006
 C        -3.9514215356        4.8140440114       -0.7030867947
 C        -3.4957155319        4.8488676311       -2.2193200388
 C        -2.3738851943        3.8402048033       -2.2667072958
 C        -1.1229533415        4.2978960233       -1.6953056916
 O        -3.4164919554        5.5048223570        0.1983206896
 O        -2.5554240273        2.7053791006       -2.6942812106
 C        -4.5787670715        4.4373944333       -3.3177386994
 C        -3.0329337440        6.3142971494       -2.6993416484
 C         0.1466580863        3.3741881586       -1.8135393335
 C         0.4682992410        2.6794813891       -0.4368006049
 C         1.2989220510        1.3174073043       -0.4552956808
 C         0.0271871377        0.1899303476       -0.3836051346
 C         0.0337805367       -0.8062351462       -1.5316348118
 C         2.2758899771        1.2151335441       -1.5996081072
 C         2.0043337329        1.1315618027        0.9553784776
 O         0.0852607697        3.2158064753        0.5655672853
 O        -0.5489061792        0.0245054021        0.6901999932
 C        -1.3165213507       -1.6654928736       -1.3814882252
 C        -1.1185693019       -3.2281061549       -1.6020610600
 C        -2.3321820500       -4.1113595506       -1.1416249300
 C        -2.8952563391       -4.8058641157       -2.4929239939
 C        -2.0348466553       -5.8807165864       -3.2964304595
 O        -0.1676090246       -3.7811903092       -2.0297509710
 O        -4.1193875481       -4.6950154259       -2.6958291693
 C        -1.8205418325       -5.3150677189       -0.1653100978
 C        -3.5194275755       -3.3362792556       -0.4667383628
 C        -2.0424242328       -5.5343678001       -4.8975010993
 C        -0.6860800872       -6.0971853759       -5.5121888429
 C        -0.7250051874       -7.0483351943       -6.7413301672
 C         0.6172344696       -7.8499321302       -7.1182450028
 C         2.0162486994       -7.2965012260       -6.6927450881
 C        -1.8883900828       -8.1095539866       -6.6656157950
 C        -1.0605970575       -6.3644946205       -8.0955020757
 O         0.3703225782       -5.6762306384       -5.0325970325
 O         0.6106343553       -8.9677880422       -7.5377533517
 C         3.0090716993       -7.1130135269       -7.9103743359
 C         2.5572078672       -6.6795836829       -9.2748328198
 C         2.5831404200       -7.5910139605      -10.4380262528
 C         4.2871943694       -7.1874600608      -10.8736441382
 C         4.9550347084       -5.7754339770      -10.8830611155
 O         2.0770938592       -5.5080507703       -9.4858543636
 O         4.8360883324       -8.1942681449      -11.1849748548
 C         2.4608713122       -9.0717482720      -10.1209936878
 C         1.7208871462       -6.9877398790      -11.6080250459
 H         3.8509960164        7.5207746452       13.1492013740
 H         5.4570794200        7.0273762488       12.5842217943
 H         4.5771749503        8.6034544668       12.3184085864
 H         1.4173358112        5.8358359004        9.0685300825
 H         2.6797389980        7.1919531085        8.4834481599
 H         5.9078827253        7.5218699653       10.0463682841
 H         5.0317666686        7.2741835070        8.6106572297
 H         6.2943749041        5.9394204139        8.8423515798
 H         5.3669202770        3.8932299981       10.3066869422
 H         6.1353981442        4.9399335184       11.4806814959
 H         4.6958752495        4.5136684640       11.9077131997
 H         2.0145289439        6.3585624309        6.2696834422
 H         2.8029072808        4.7675814808        6.7528520631
 H        -2.0466648996        2.1041932796        6.7079599194
 H        -2.1178203215        3.9961073612        6.5534283347
 H         1.8099072932        2.1667254174        4.8010595816
 H         2.8881652195        3.4872994328        5.3957026285
 H         1.6948385630        3.7169042165        4.1575847115
 H         1.5318519286        1.4733536530        6.7503633194
 H         1.3073113212        2.4462539267        8.2253558243
 H        -0.0083374552        1.9169848364        7.3914827392
 H        -3.1065566461        3.8273213166        4.3212699679
 H        -4.0879964564        3.1432159247        5.5211461431
 H        -6.3941065700        3.2175896884        1.2637634253
 H        -5.4107079247        4.6816093695        1.6556592033
 H        -5.7157705192        0.9854737045        1.6678035124
 H        -6.2082640888        0.4777690777        3.1624488462
 H        -4.5407761029        0.0171833684        2.7697887400
 H        -5.5928110855        3.9160448528        3.9905715149
 H        -6.7093787919        2.8381222336        3.2459469351
 H        -6.1370753091        2.4828813063        4.9734005789
 H        -4.9337237144        2.9297561394       -0.7384901798
 H        -5.9770317064        4.2894739708       -0.7258037886
 H        -0.6805207864        5.1338417916       -2.2105082655
 H        -1.1811240854        4.5694268404       -0.5998261514
 H        -3.9734947448        4.6275831641       -4.2263149368
 H        -5.2859531941        5.2000197070       -3.3020319856
 H        -4.9659840771        3.4348683377       -3.4275245850
 H        -3.8566879777        6.9707911038       -2.8517536526
 H        -2.6765210738        6.7997815057       -1.7612552261
 H        -2.3705209728        6.5328432605       -3.5204173091
 H         0.9708812094        4.0830644763       -1.7723467009
 H         0.1549803601        2.7609616336       -2.6630432261
 H        -0.0019869534       -0.0973892289       -2.4838917238
 H         0.9826225161       -1.3403342032       -1.3982468710
 H         2.0412453256        1.9212893641       -2.4690224185
 H         2.3343186265        0.2766689428       -2.0569482357
 H         3.2882387470        1.3986194340       -1.3061179477
 H         2.4233287699        2.0612754820        1.1109963376
 H         1.3039973032        1.0380803167        1.7510679263
 H         2.7139358422        0.3371093434        0.9013454483
 H        -1.6542666235       -1.3298048397       -0.3938161717
 H        -1.8762626101       -1.3239348863       -2.1729972094
 H        -0.9746858566       -5.5499839737       -3.1127440209
 H        -2.3335890888       -6.9251285346       -3.0908493205
 H        -2.7221135525       -6.0245476689       -0.2017569448
 H        -1.3714560809       -5.1630717839        0.8360510636
 H        -0.9569874423       -5.7308044660       -0.7762114500
 H        -3.4834013564       -2.2557135050       -0.5902809288
 H        -4.4522095309       -3.7894266722       -0.7529590238
 H        -3.6418062334       -3.2700816405        0.5935015762
 H        -1.9819229494       -4.4606462985       -4.9548145647
 H        -2.8163076688       -6.0077586751       -5.3462273830
 H         1.9435411796       -6.4186722221       -6.1074836157
 H         2.3749271994       -8.0257553500       -5.9349609526
 H        -2.9539166300       -7.6247186003       -6.6625938071
 H        -1.8424303359       -8.6181097717       -5.6874137565
 H        -2.0156331592       -8.7675945609       -7.5370886854
 H        -2.1130581736       -6.0477987879       -8.0177018544
 H        -0.5360719211       -5.5080524814       -8.3527369912
 H        -1.1007882033       -7.1061758234       -8.8737700392
 H         3.7191641826       -6.3155592687       -7.4442320117
 H         3.5781585169       -8.0401629554       -7.9615754876
 H         5.2031681116       -5.5483387338      -11.9682324002
 H         4.3834958747       -4.9786646329      -10.3770170553
 H         5.8524133918       -5.9183271340      -10.4713590075
 H         2.0915593008       -9.4114162721       -9.1577737428
 H         3.4368679218       -9.6112031247      -10.2636732100
 H         1.8002808099       -9.5735884737      -10.7595071688
 H         2.0807622623       -7.3395635053      -12.5192998675
 H         0.5961091712       -7.0889943161      -11.4420009639
 H         1.9361530424       -5.9149600365      -11.6134275523
 Na       -1.3692329441        1.8363149904        2.0142356761
