155

 C         4.3789712296        7.6710873286       12.1648831099
 C         3.7388616527        7.1911307272       10.8017596032
 C         4.7482294572        6.3208012658        9.8981062841
 C         3.8922112397        5.3555443837        9.0220338556
 C         2.4237754403        5.6212669606        8.3913946991
 C         5.5754087914        7.3340035477        9.0240808947
 C         5.6779894245        5.4409759085       10.7963532756
 O         2.5079255184        7.3774991327       10.4751099962
 O         4.3331050258        4.2230548656        8.7272382806
 C         2.4131662230        5.3174978708        6.9197911040
 C         1.2043658045        4.4602017925        6.7004594575
 C         1.2033948614        3.0976483752        5.8552097250
 C        -0.1173921788        3.0049959990        5.0651737527
 C        -1.3636065775        2.4586929586        5.9731682762
 O         0.0745918187        4.8299242520        7.0186322979
 O        -0.3158363651        3.2630740416        3.9344384768
 C         2.4168029990        3.2940459580        4.7831436192
 C         1.4755820555        1.8078913948        6.6148410496
 C        -2.6705639241        2.9967909898        5.3871767921
 C        -3.3016746038        1.9550256443        4.4010102969
 C        -4.6299937742        2.4264954886        3.6686020998
 C        -4.1816219323        3.2500623538        2.3676579772
 C        -5.1243696067        4.2965150162        1.6914366147
 C        -5.3569891493        1.0860895018        3.2330223436
 C        -5.6195773353        3.0924669846        4.6937858293
 O        -2.8679677509        0.8496182355        4.1374265264
 O        -3.1958044941        2.8806757641        1.6412628729
 C        -5.0074495624        4.2350791582        0.1465415337
 C        -3.9715159850        5.1152363655       -0.4809776820
 C        -3.6385255665        4.9553629976       -1.9749915183
 C        -2.6505445604        3.7665260314       -2.2684970452
 C        -1.1061294175        4.1470563539       -2.0678573441
 O        -3.3751206500        5.9964045795        0.1651040565
 O        -2.9701952520        2.6355424456       -2.4030011570
 C        -4.9681933217        4.7487286357       -2.8197928165
 C        -2.9720413327        6.2083703824       -2.4486728020
 C        -0.2561288103        2.8731188429       -1.9921217236
 C        -0.0763500876        2.3008869753       -0.6070348901
 C         0.8428414820        1.1082452904       -0.3275466438
 C         0.0424752250       -0.2433108494       -0.1719072649
 C        -0.4511540165       -0.9914189994       -1.4913036683
 C         1.7946434522        0.8669617772       -1.4811276248
 C         1.6923230682        1.2820005241        0.9760332455
 O        -0.6309732308        2.8323587831        0.3781943061
 O        -0.2781659022       -0.5535710980        0.9636163828
 C        -1.7657064239       -1.7079802493       -1.2873038982
 C        -1.4619908951       -3.1920300825       -1.2415249669
 C        -2.5847766370       -4.2972455108       -0.9255401728
 C        -2.8736037665       -5.2700550742       -2.2060561119
 C        -1.6985797290       -5.4683421725       -3.3318123497
 O        -0.3899581592       -3.6173266556       -1.6127696577
 O        -3.9548322671       -5.8132671711       -2.3202953346
 C        -2.1590377375       -5.2440271274        0.1726062917
 C        -3.8349769141       -3.5537934202       -0.5267994870
 C        -1.8037858511       -6.5752154914       -4.4635445278
 C        -1.0363683185       -6.0029391829       -5.6263016420
 C        -1.1404468733       -6.5831133934       -7.0126138074
 C         0.3023728634       -7.3075472919       -7.1387875838
 C         1.6797886636       -6.5414805227       -7.2310097863
 C        -2.2727018995       -7.7309378107       -7.1925313502
 C        -1.3848604812       -5.4457739483       -8.0127729001
 O        -0.2299616000       -5.1024887362       -5.4489114446
 O         0.2624576902       -8.4484780195       -6.9248423496
 C         2.5719738790       -7.2217924089       -8.2857515012
 C         2.1903157565       -6.6962782923       -9.7741439836
 C         2.9158277970       -7.4584957672      -11.1317456956
 C         4.4028895983       -7.9615994615      -10.8487825440
 C         5.3504789528       -6.8377050295      -10.5350418214
 O         1.4544336396       -5.7652748463       -9.9987047599
 O         4.7338042479       -9.1083884824      -10.7876929734
 C         2.1894673626       -8.9174801685      -11.3046712154
 C         2.6857341899       -6.6125547520      -12.4124907404
 H         5.3898914805        7.5885861099       12.1851634190
 H         3.9983612046        8.7218252639       12.4123998697
 H         3.9770786200        7.2222600700       13.1057029441
 H         1.6347513142        5.0408978196        8.9192837527
 H         2.0810614540        6.6352233882        8.5821646352
 H         5.9818126035        8.1076423874        9.6891036781
 H         4.7972497971        7.5700280757        8.2054454213
 H         6.4951861568        6.8206079433        8.6844978209
 H         6.1534339838        4.6267580709       10.2346592503
 H         6.4310127358        6.0072014479       11.3119103404
 H         5.0408260498        4.7319962670       11.4420561566
 H         2.4991303636        6.1029718294        6.1614554819
 H         3.2761773553        4.5425711525        6.7405342743
 H        -1.2462905544        1.4086789687        6.0301865058
 H        -1.2368031103        2.8651982827        6.9662318306
 H         2.4899230766        2.3545443770        4.3416522586
 H         3.4209009371        3.3088084296        5.2916618108
 H         2.3060350581        4.0839493820        4.0636249231
 H         1.2920921550        0.9272386808        5.9031123459
 H         2.5888094257        1.9188299052        6.9055714598
 H         0.9472063440        1.5248607213        7.4670222422
 H        -2.6756839457        3.9133492911        4.6926535248
 H        -3.5009639096        2.9730021791        6.1400065170
 H        -6.1771023155        3.9982390922        2.0382041498
 H        -4.9875581479        5.2863639909        2.0450353017
 H        -6.1789837680        1.3238984265        2.5645589091
 H        -5.4674548695        0.4317899467        4.0787585857
 H        -4.6183367452        0.5790673276        2.6043615408
 H        -5.2285323262        4.0108893448        5.1445403156
 H        -6.5310998430        3.2578439048        4.1783189340
 H        -5.8457696788        2.4121911356        5.5585075725
 H        -5.0046586261        3.1830874401       -0.2462271545
 H        -5.9931333299        4.5558470886       -0.3764512329
 H        -0.6635930047        4.8391235572       -2.7908660340
 H        -1.1697859018        4.5789478130       -1.0649683747
 H        -4.7722446036        4.5112133352       -3.8768903776
 H        -5.5393209524        5.7033712880       -2.7679409391
 H        -5.5532131116        3.9405411961       -2.4469774797
 H        -2.1000280372        6.3465236647       -1.8303992704
 H        -2.7427476580        6.2912273851       -3.4941856256
 H        -3.5088428806        7.0584988823       -2.1143636325
 H         0.7931561856        3.0263156817       -2.2571051659
 H        -0.6800128885        2.1809068851       -2.7590158394
 H        -0.5552296548       -0.2131771038       -2.1764568924
 H         0.3017084955       -1.7621235405       -1.8380458987
 H         2.6240563346        0.1959015978       -1.2755264706
 H         2.1496119348        1.7934122204       -1.9205280637
 H         1.1821226411        0.3362226864       -2.1802900201
 H         2.3310336469        2.1360125534        0.8594889103
 H         1.0045620365        1.2708279975        1.7667203367
 H         2.2842740600        0.4283780175        1.0775602460
 H        -2.2130079105       -1.2756285060       -0.3576158255
 H        -2.4658763842       -1.4769309184       -2.2392763183
 H        -1.5798786239       -4.4998490306       -3.7232986675
 H        -0.8503259120       -5.6956617296       -2.7604593902
 H        -2.8602683300       -6.0717021376        0.2832144459
 H        -2.2469510849       -4.6712665028        1.1560499202
 H        -1.0987371736       -5.5702414061       -0.0305016740
 H        -4.7293354378       -4.0408609262       -1.0632125046
 H        -4.1248936355       -3.7414011259        0.5064182950
 H        -3.9769338838       -2.4594154629       -0.7501135752
 H        -2.8405886845       -6.6870557452       -4.8739648321
 H        -1.3422964349       -7.5231332215       -4.1799915034
 H         1.3806689135       -5.5652680902       -7.6765368715
 H         2.2296817583       -6.4032672472       -6.2949635699
 H        -3.0042002133       -7.6694660261       -6.4003607014
 H        -1.9392895289       -8.7506187361       -7.2240675123
 H        -2.6877772336       -7.7632866707       -8.2003317092
 H        -2.3519270481       -5.0077684799       -7.6619012815
 H        -0.6848073230       -4.6869540518       -8.2135587461
 H        -1.5505906809       -5.9287517417       -8.9533946047
 H         3.4569845146       -6.7843771292       -8.0407294904
 H         2.6844228388       -8.2443477662       -8.0350358339
 H         6.1191931842       -7.4523018155      -10.0750436811
 H         5.8567171941       -6.4265200942      -11.4291331636
 H         5.1090760055       -6.0242025487       -9.8560030572
 H         2.7922220508       -9.7438457112      -10.8675839107
 H         2.0932731503       -9.1936070134      -12.3243344910
 H         1.1274311107       -8.9216075099      -11.0499391602
 H         3.5233751013       -6.9396550231      -13.0505209184
 H         1.6922460897       -6.8747343894      -12.8256891534
 H         2.7004498871       -5.5327612717      -12.1838216745
 Na       -1.0946593461        1.6731999093        2.4188257432
