155

 C         4.1991248544        7.9729570892       12.0396166400
 C         3.8392582164        7.1874159076       10.7997987605
 C         4.9083269928        6.8212978833        9.7461483081
 C         4.2395663414        5.7300461513        8.7958572872
 C         3.2915248176        6.0768007328        7.6499854832
 C         5.3561352074        8.0221668422        9.0631330553
 C         6.1501253734        6.1707287707       10.4144234038
 O         2.6497444704        7.0178531818       10.5009384247
 O         4.7197475233        4.5743332526        8.8969838801
 C         3.2204030531        4.9417502882        6.6770165969
 C         1.9353564683        4.1697830449        6.6787520138
 C         1.8613542275        2.8658947995        5.6523983626
 C         0.3351441675        2.4511266671        5.1242489634
 C        -0.8600466695        2.0880387688        6.0106317611
 O         0.9343879819        4.4909906823        7.2432726808
 O         0.2172340826        2.3765099277        3.8621361238
 C         2.4976142882        3.2436201201        4.3317337035
 C         2.3285225885        1.5571256804        6.2258744172
 C        -2.1539560628        2.8054664588        5.7453433695
 C        -2.9529956360        2.0936794534        4.6429774351
 C        -4.2201564149        2.6942670976        4.0322512582
 C        -4.1747757674        3.2276150165        2.5182198920
 C        -5.2396435827        4.2746363255        2.0098349515
 C        -5.3612151626        1.5765821644        3.8606341315
 C        -4.8176433093        3.9422739424        4.8482548614
 O        -2.6285508639        0.9608542194        4.2423356949
 O        -3.4117667402        2.6904684668        1.7362892557
 C        -5.2495131189        4.4548355077        0.4936468097
 C        -4.0373785402        5.1157697086       -0.1559129502
 C        -3.7930137108        5.2617799711       -1.8123610688
 C        -2.6659237462        3.9912463205       -1.8978239128
 C        -1.0799421873        4.1389098482       -2.3953369549
 O        -3.2915912065        5.7555240654        0.5318684044
 O        -3.0649524778        2.9417985711       -1.5442002259
 C        -5.0155263610        4.7427304567       -2.5885802112
 C        -3.2244570109        6.6255178487       -2.2529868354
 C        -0.5007759890        2.7376023782       -2.2807384075
 C        -0.4113446750        2.2647168138       -0.8304971279
 C         0.2859025541        0.8744866884       -0.5094385445
 C        -0.7119244971       -0.2610521682       -0.1360645204
 C        -1.0429406394       -1.3286223461       -1.2027981076
 C         1.1598302455        0.3483659317       -1.8144653998
 C         1.2442846334        1.1064110281        0.6962139186
 O        -0.7000307436        3.0191687800        0.1075520397
 O        -1.4404952268       -0.1561511243        0.9131021696
 C        -2.1490297962       -2.2112156186       -0.8403179534
 C        -1.7691275191       -3.6902570283       -0.6021682078
 C        -2.7355659033       -4.8003858005       -0.6606044754
 C        -2.5036453953       -5.5272665378       -2.1026476524
 C        -1.0712087694       -5.4074103813       -2.8760928171
 O        -0.5466009668       -3.8946758503       -0.3746851337
 O        -3.3738949273       -6.2013599916       -2.5533537494
 C        -2.5161691161       -5.8057284956        0.3818928547
 C        -4.1590315532       -4.2074119100       -0.7572332564
 C        -1.1717842817       -6.0070880598       -4.3111753356
 C        -1.1072631300       -5.3056747534       -5.6925633225
 C        -1.3818117834       -6.2179554918       -7.0469047326
 C         0.0085123141       -7.0491263540       -7.3998249412
 C         1.1098576123       -6.4928178939       -8.1930490062
 C        -2.5100831380       -7.2920405138       -6.8327998632
 C        -1.8146371303       -5.1266366445       -8.1576316622
 O        -0.8976009218       -4.1575150988       -5.8495565929
 O        -0.1121219940       -8.2697122010       -7.1692040374
 C         1.9088281206       -7.4431248767       -9.0944958555
 C         1.9506766602       -6.8006088646      -10.5324249540
 C         3.0585272193       -7.6949767860      -11.4841138127
 C         4.0709623835       -8.4073613794      -10.5375009178
 C         5.2938976119       -7.5713128893      -10.2765101265
 O         1.4758224421       -5.8050762144      -10.8772203719
 O         3.8173585414       -9.3603361878       -9.8475295020
 C         2.3771399828       -8.9155512226      -12.1926778945
 C         3.5744360196       -6.6324537068      -12.5454592357
 H         3.5605366404        7.7823237269       12.8908568167
 H         5.2568842980        7.8043666725       12.5553372265
 H         3.8796329923        8.9975074470       11.8897542984
 H         2.3017467330        6.4528364073        8.0474378892
 H         3.4485385996        6.9799274235        7.1275065617
 H         5.6166722454        8.6335764106        9.8483798676
 H         4.5179284983        8.4593544034        8.4955016025
 H         6.2147185134        7.6178187207        8.5189742675
 H         7.0759919576        6.0834502943        9.8105827220
 H         6.5240417416        6.7978316624       11.2535913859
 H         5.7071298798        5.1938825898       10.7040720273
 H         3.2197010454        5.3414606884        5.6465393146
 H         3.9946654430        4.2590257570        6.5873593808
 H        -1.0095065237        0.9744634731        5.9093225834
 H        -0.5987652569        2.1822269161        7.0355522979
 H         2.3945604269        2.4900906717        3.5171472447
 H         3.5115827445        3.2678973256        4.6581872586
 H         2.2113082688        4.1713960412        3.8749067677
 H         1.8365597216        0.6831839930        5.7911790411
 H         3.4213270757        1.4016187798        6.2475657606
 H         1.9617502033        1.5032249057        7.2624838808
 H        -2.0609262912        3.8632496994        5.5405384892
 H        -2.7717601758        2.5910690046        6.6698576416
 H        -6.1901319577        4.1534457037        2.4276032746
 H        -4.9996603326        5.3289864216        2.4396991275
 H        -6.3252194081        2.0031565241        3.6046398866
 H        -5.5154398189        1.0423081352        4.8094326385
 H        -5.0448501397        1.0040996157        2.9741456528
 H        -3.9756543722        4.6807762261        4.8909311174
 H        -5.6741813148        4.4705260708        4.4342820545
 H        -5.1164712311        3.7310093881        5.8315929706
 H        -5.6750976546        3.6143314539       -0.1900699371
 H        -6.0815123352        5.1105467661        0.2095647995
 H        -0.9020656212        4.6313654323       -3.3248951575
 H        -0.8398002797        4.8637690322       -1.6915036518
 H        -4.9660577027        4.7578270474       -3.6555004920
 H        -5.9670715968        5.3016097057       -2.3451206276
 H        -5.2235832543        3.7331036532       -2.1253104763
 H        -3.4330751311        7.3508867979       -1.4761213204
 H        -2.2182822138        6.5910760436       -2.5068556102
 H        -3.7772599744        6.7773148251       -3.1601486309
 H         0.5750560831        2.5736576999       -2.6690605038
 H        -0.9430515381        1.9741508058       -2.9160788478
 H        -1.1975217442       -0.8017176133       -2.1891702168
 H        -0.1662911164       -1.9125419340       -1.3455590420
 H         1.7491011998       -0.4321079784       -1.4765281836
 H         1.7569177185        1.2092976926       -2.2702463968
 H         0.4653541075        0.1175677854       -2.6368290294
 H         2.1504175726        1.6125870454        0.3601042365
 H         0.5649761985        1.6748769279        1.2729854987
 H         1.5383507908        0.2118820241        1.1797859105
 H        -2.8644554904       -2.0210409937       -0.0131430008
 H        -2.8176664385       -2.2935578450       -1.6686265600
 H        -0.6360868772       -4.4242756687       -2.8788939520
 H        -0.4045337010       -6.0092717810       -2.2638580029
 H        -2.6169599885       -6.7487859767       -0.0977834786
 H        -3.2009561858       -5.6624098713        1.2228273442
 H        -1.4430594729       -5.7723987769        0.5938332755
 H        -4.0950854369       -3.2961171242       -0.2675848751
 H        -4.4503887115       -4.2757022184       -1.8178943780
 H        -4.9618830725       -4.8662894425       -0.3808998395
 H        -1.9674999145       -6.7311641230       -4.4822488021
 H        -0.2475429502       -6.6780537266       -4.5046273153
 H         0.7546500068       -5.5893909032       -8.7651653401
 H         1.8314053528       -6.1252612751       -7.4123744488
 H        -2.3430728775       -8.2638098738       -6.5303160755
 H        -3.0091666236       -7.3544531038       -7.8106325609
 H        -3.2158855724       -6.8861194496       -6.1075619731
 H        -2.6070289790       -4.5597324923       -7.8190196868
 H        -1.0113386906       -4.3532274237       -8.3165241245
 H        -1.8941104166       -5.6370089964       -9.1319178068
 H         2.8599208219       -7.7224126340       -8.6537583174
 H         1.4286393913       -8.4215338478       -9.0610135094
 H         5.9445370979       -8.1542243550       -9.6391679910
 H         5.8225621537       -7.0538832717      -11.0635678643
 H         4.8611421473       -6.7518185397       -9.5405663290
 H         1.8193536385       -9.5785174498      -11.5940321638
 H         3.2117417529       -9.4180708792      -12.6918993982
 H         1.6770522154       -8.6691674930      -13.0461006415
 H         4.0569372980       -7.1695091860      -13.4332976892
 H         2.7141239970       -6.1701599639      -12.9513640383
 H         4.2703673081       -6.0210549108      -11.9487573365
 Na       -1.4109821151        1.8003547736        2.3235716269
