155

 C         3.0488225750        7.9472523766       10.4559954680
 C         3.7739827958        6.8858230193        9.8200347502
 C         4.8188113619        7.2502037393        8.6658812109
 C         4.7749256888        5.9899626664        7.7249771955
 C         3.3555351949        5.6328715081        7.1461737318
 C         4.4106422935        8.5547244861        7.8562383645
 C         6.3599555398        7.3648062021        9.2062858288
 O         3.5992424155        5.7509627646       10.0338290238
 O         5.7444880309        5.2522352984        7.6238214750
 C         3.5098603257        4.2249141467        6.7082307788
 C         2.7074141233        3.8047765207        5.4591031417
 C         2.9318275066        2.3203479568        4.8748303761
 C         1.4393471114        1.8336565917        4.7001255241
 C         0.5348468256        1.9776313710        6.0000976370
 O         1.9011609615        4.5022207619        4.8591744240
 O         1.0735264096        1.3880364406        3.6588148284
 C         3.5244500102        2.4136527473        3.5264247619
 C         3.6338165641        1.2364249211        5.7375805797
 C        -0.4676344756        3.0942039545        5.5780597150
 C        -1.6378525561        2.5530248365        4.7275985466
 C        -2.7189607234        3.5990007961        4.3809258328
 C        -3.5628840554        3.1625091579        3.1763714582
 C        -4.9682155327        3.8071858293        2.9707306539
 C        -3.7238248402        3.4759077592        5.6336976781
 C        -2.0372459090        4.8918827417        4.0048108169
 O        -1.8255393922        1.3510675880        4.5560063889
 O        -3.1142927998        2.2359029696        2.4681577622
 C        -5.2126899031        4.0720734314        1.4641551745
 C        -4.4381301970        5.3228724504        1.0029456349
 C        -4.2593101616        5.4565616848       -0.5041594894
 C        -3.6469343518        4.1416748167       -1.1824535347
 C        -2.1073490336        4.0056820338       -1.1419593509
 O        -3.8845030583        6.0869904891        1.6927620041
 O        -4.4244973144        3.3142942376       -1.6360322532
 C        -5.6778072615        5.6803066501       -1.2245697314
 C        -3.3507564897        6.7587957569       -0.8263635117
 C        -1.5021893826        2.7061659547       -1.6359084254
 C        -0.9741522272        1.7103813805       -0.4758523287
 C        -0.5951328994        0.2686982404       -0.8745685096
 C        -1.5916116634       -0.7801044927       -0.1007780314
 C        -2.3802533476       -1.7615894072       -0.9093760421
 C        -0.3985420774        0.2235176193       -2.5263304560
 C         0.7055860165       -0.3263761701       -0.3421512900
 O        -0.9336035215        2.0611193997        0.6586854927
 O        -1.3550073962       -0.9862629771        1.1330251966
 C        -2.6331088252       -3.0669661499       -0.0839479607
 C        -1.5263391255       -4.1900687481       -0.3830679051
 C        -2.1492896966       -5.5932462667       -0.9868375695
 C        -1.9377015108       -5.3862396671       -2.5910295400
 C        -0.4456630206       -5.2681749113       -3.2162507661
 O        -0.3751356712       -4.0493480505       -0.2048118096
 O        -2.9106209903       -5.0581470972       -3.2755042882
 C        -1.6135247353       -6.8935738593       -0.2919536161
 C        -3.6027458485       -5.5910852661       -0.7578118298
 C        -0.5690677120       -5.4553392350       -4.7025760814
 C        -1.2441591549       -4.3935667608       -5.6060586083
 C        -1.8908326759       -4.8055123659       -7.1069763812
 C        -0.6880877926       -5.5361499978       -7.8167099733
 C        -1.0414936491       -6.1404113234       -9.3463795262
 C        -3.1026206752       -5.8190177142       -7.0387504892
 C        -2.3452176535       -3.5241223757       -7.8008512926
 O        -1.3006298117       -3.1526235421       -5.3987138209
 O         0.3564683887       -5.8889005847       -7.2478700737
 C        -0.1807189500       -7.2574352274      -10.0384004474
 C         1.3759048877       -6.8208967722      -10.1801498354
 C         2.2843991448       -8.0529561671      -10.7797731196
 C         2.8637868236       -9.0145254207       -9.6879405298
 C         4.0447503187       -8.5072746970       -8.9167333112
 O         1.9040882028       -5.7878530904       -9.9620826941
 O         2.2662809794      -10.1191529956       -9.3960841342
 C         1.2908987375       -8.8994758501      -11.7519121239
 C         3.4929597837       -7.4199062619      -11.4897621007
 H         2.3104040059        8.3513437386        9.7534685788
 H         2.2219748011        7.5274409591       11.1128809278
 H         3.5221504872        8.6466965316       10.9809104451
 H         2.5539361743        5.6788204496        7.9380915416
 H         3.2930249123        6.1940523672        6.2832643531
 H         4.6094728626        9.4534039175        8.5341450085
 H         3.4247921658        8.4648552944        7.5483900649
 H         5.1119534130        8.5741358846        7.0672406138
 H         6.9605704580        7.5216537125        8.2963926266
 H         6.3340059847        8.4230580123        9.5361243041
 H         6.6750199971        6.4810974861        9.6749141740
 H         4.5278731494        4.0782015449        6.3247000573
 H         3.3021102439        3.5550728537        7.4751670266
 H        -0.0563673607        1.1015452494        6.2288112993
 H         1.0269819649        2.4189639734        6.8662863799
 H         3.5326826675        1.5259079571        2.9504997240
 H         4.5404196102        2.8401583246        3.5480932540
 H         2.7909343488        2.9209963879        2.9136575633
 H         3.2634612650        0.2534754921        5.3889847226
 H         4.6593128102        1.2254665317        5.3591521978
 H         3.5056712299        1.2469816730        6.7575423843
 H         0.2391876170        3.8547336777        5.0001199868
 H        -0.7564310114        3.6219352680        6.4819608559
 H        -5.6516252186        3.0472754481        3.2511842719
 H        -5.0882318480        4.6827292643        3.6362829757
 H        -4.5807967965        4.1673449567        5.5389768722
 H        -3.2388616081        3.7639328877        6.5430461839
 H        -4.1482180359        2.5072343030        5.5215531518
 H        -1.3447357408        4.8788616200        3.2397943724
 H        -2.7655620341        5.6239464466        3.6724252659
 H        -1.5564175337        5.3566021875        4.8857555025
 H        -4.9425831909        3.2475583331        0.8539729195
 H        -6.2332064364        4.4780418589        1.3509404307
 H        -1.5322540372        4.6780322379       -1.8350548225
 H        -1.8874529982        4.1581148255       -0.0261108042
 H        -5.4760893339        5.7656073427       -2.3505446688
 H        -6.2617390632        6.5704175655       -1.0432245885
 H        -6.5396860043        5.0205379268       -0.9616762521
 H        -2.6181926225        6.5686574571       -1.5368769869
 H        -3.8899898170        7.6344957324       -1.0761373603
 H        -2.7374661585        6.9412799990        0.0551661981
 H        -0.5475850491        2.9623074294       -2.1142395163
 H        -2.1997389354        2.2743085215       -2.2841867713
 H        -3.3360630876       -1.2124099019       -0.9504778721
 H        -1.7897479094       -1.9507089310       -1.8925445720
 H        -0.3464792838       -0.8012490793       -2.9414755491
 H         0.4416115532        0.7706544812       -2.9639892914
 H        -1.2818483547        0.5091775760       -3.1213860964
 H         1.5627042271        0.0879092773       -0.7766151123
 H         0.6966987830       -0.0512534952        0.7220224330
 H         0.7112362996       -1.4239357210       -0.4091161451
 H        -2.3630349449       -2.8901270646        1.0694915505
 H        -3.7131098285       -3.2890829215       -0.2217487693
 H         0.0155221923       -4.2756423453       -2.8253213648
 H         0.1947510121       -6.0719063264       -2.7313517989
 H        -2.4094601160       -7.5883578092        0.0035130547
 H        -1.0760400089       -6.5149431487        0.5170462278
 H        -1.0735477972       -7.4533265728       -1.0073151927
 H        -3.8465326599       -6.5331406597       -1.2342136902
 H        -3.9592353779       -5.5204523373        0.2109251436
 H        -3.9733749998       -4.8156941863       -1.3468062609
 H        -1.3124785244       -6.2306910717       -4.8016444674
 H         0.3328839402       -5.6823815863       -5.2440269791
 H        -2.0015067622       -6.6576696206       -9.1022398655
 H        -1.3421437466       -5.2931325011       -9.9530449835
 H        -2.8329697137       -6.8135153747       -6.6267086380
 H        -3.5203160022       -6.0212997657       -7.9738171393
 H        -3.7149719128       -5.3046999848       -6.3604360171
 H        -2.2995467130       -2.7626388228       -6.9824331937
 H        -1.6586941575       -3.1493838923       -8.5316438412
 H        -3.2570280243       -3.6031894026       -8.3954257542
 H        -0.2307593237       -8.0087645471       -9.2122824105
 H        -0.5761941599       -7.6133434878      -11.0841970134
 H         3.8596663428       -8.6086727224       -7.8980730429
 H         5.0064102253       -8.9339141368       -8.9548950803
 H         4.1599928146       -7.3748053403       -9.1904014986
 H         0.7993974341       -8.2645677546      -12.5597879812
 H         0.6342442559       -9.4321620383      -11.0903980886
 H         1.8109249699       -9.7036063312      -12.2637086651
 H         4.0712263116       -8.2662311782      -11.8013723488
 H         3.1780107072       -7.2757354425      -12.5450461438
 H         4.0997873952       -6.7357162650      -10.8865442799
 Na       -1.0621054126        0.8513874984        2.4733771798
