155

 C         3.8093747993        6.0913076266        7.8587702496
 C         3.5986302757        5.8553094862        6.2490236961
 C         4.5780008750        6.3803608981        5.1343833491
 C         5.1190315399        4.9288359491        4.9078612307
 C         4.8814086918        4.1828386451        3.5564480622
 C         3.8200902945        6.9196611298        3.8889994400
 C         5.6567042150        7.3674570823        5.6496261886
 O         2.4651239768        5.4500852197        5.9502875154
 O         5.7962678749        4.5462174700        5.8236750863
 C         5.8344943244        3.0250600017        3.2843654759
 C         5.3274832931        2.1712159072        2.1387992125
 C         4.1169311059        1.1344457837        2.4840448221
 C         2.8888228874        1.8003987623        3.3663818883
 C         2.5649606389        1.3930017558        4.8084221147
 O         5.7161805139        2.3009608646        1.0304273389
 O         2.0525645669        2.4164619201        2.6975421386
 C         3.5542258412        0.7983568147        1.0076302568
 C         4.7256497412       -0.1404346200        3.2701800224
 C         1.6882769089        2.4084502184        5.5818224670
 C         0.1928984092        2.2878610510        5.1780289220
 C        -0.8053578855        3.4749932519        5.3729585845
 C        -2.1145199363        3.2801222773        4.4554970053
 C        -3.1602593484        4.2730893694        4.8363590175
 C        -1.2089777188        3.6875127906        6.9583683969
 C        -0.1272671760        4.8371972831        4.7386193905
 O        -0.1373168933        1.2125697911        4.7405912812
 O        -2.1164050662        2.5740518813        3.5077699948
 C        -4.6347742543        4.1123048136        4.2857502427
 C        -4.7776910820        4.7646811010        2.7972616187
 C        -5.6463922895        3.9397623303        1.7033797853
 C        -4.5387983396        3.1246982147        0.8371054677
 C        -3.5495286646        3.9034380264       -0.1612433970
 O        -4.2369931403        5.7389652646        2.3990515950
 O        -4.4165730609        1.9571388562        1.0299465054
 C        -6.7216390909        2.9692592633        2.4647133057
 C        -6.3779629363        5.0574521301        0.9754334985
 C        -2.6846931997        2.9378288972       -0.9115361388
 C        -1.5820445036        2.1927235181       -0.2575144584
 C        -1.0098660168        0.8204732739       -0.8225021932
 C        -1.6037950037       -0.3618831689        0.4413534439
 C        -2.3428039167       -1.6239917500       -0.1079234240
 C        -1.5581803051        0.5889706316       -2.3096269148
 C         0.4830514145        0.9946703050       -0.9380984517
 O        -0.8654167207        2.6201235939        0.6383562206
 O        -1.5647911563       -0.0544815283        1.5665696690
 C        -1.6372386186       -2.5951061876       -1.0777530073
 C        -0.9912630504       -3.8797995964       -0.3213107666
 C        -1.7327741807       -5.2967383176       -0.3184361676
 C        -2.2305543155       -5.6255601536       -1.8736382314
 C        -1.1638156197       -5.5527296202       -3.0189535182
 O         0.1824878679       -3.6629499505       -0.1049753971
 O        -3.4034283707       -5.7930233540       -2.1402731385
 C        -0.7839546426       -6.4114884932        0.1166025842
 C        -3.1072612639       -5.3277160875        0.5800144710
 C        -1.6443955749       -4.8512610581       -4.2762955272
 C        -0.6988151931       -3.7685094277       -4.8025496425
 C        -1.2798678888       -3.0442005089       -6.0202799308
 C        -1.4785727465       -4.0300997574       -7.2677924583
 C        -0.5933638682       -4.0432502472       -8.4954481968
 C        -2.6999720931       -2.5304959019       -5.8452470848
 C        -0.5042879375       -1.8114553362       -6.4716362655
 O         0.2734902180       -3.4107621720       -4.2215584969
 O        -2.4207341585       -4.8204773324       -7.1956328840
 C        -1.0941105318       -5.0198526320       -9.5827859298
 C        -0.1469001221       -6.2228055661       -9.7374245074
 C        -0.7359760701       -7.5855544245       -9.4898490736
 C        -0.7415811360       -8.0304340957       -7.8072544117
 C         0.6918452389       -7.8429995081       -7.2310984920
 O         1.0200600771       -5.8047527383       -9.8378323877
 O        -1.7386793038       -8.0159587935       -7.0423952726
 C        -2.1942976618       -7.5316537902      -10.1722469014
 C         0.0996357703       -8.6902917299      -10.1716721483
 H         3.6031875657        7.0780144772        7.9032798616
 H         3.0861336370        5.4521410308        8.3334702959
 H         4.9323860085        5.9494293736        8.2053468553
 H         3.8649776705        3.8329436774        3.4200062792
 H         5.0694113728        4.9300755326        2.7365240739
 H         3.3281785032        7.8846325684        4.1516248091
 H         3.0373508182        6.2601057619        3.7855009377
 H         4.3205997214        7.0027486101        2.9296507123
 H         6.4072817716        7.5795901133        4.7949670106
 H         5.3729008715        8.4151830170        5.9541452663
 H         6.2102505904        6.9819278026        6.4736938822
 H         6.9377989926        3.2040751760        3.2268884685
 H         5.6929658746        2.5192654592        4.1600340175
 H         2.0147208215        0.4723269551        4.8329484957
 H         3.5043678088        1.1342318462        5.3110499698
 H         2.7160436792        0.0474207015        0.9963051547
 H         4.1922677619        0.4922634258        0.1378381245
 H         3.0545674868        1.6932532747        0.7480735169
 H         5.7028844487       -0.4559266234        2.8967559896
 H         4.8096361679        0.3395084453        4.2613167700
 H         4.1683520599       -1.0450837692        3.2919204661
 H         2.0562273132        3.5153768418        5.4602766530
 H         1.6229206305        2.2846594004        6.6541309392
 H        -3.3447932710        4.0542424551        5.9711098201
 H        -2.9320854870        5.3381629537        4.7505506957
 H        -1.8932904225        4.5178341581        7.1882468142
 H        -0.2182586425        3.9205400310        7.3590667685
 H        -1.4617653348        2.6847035618        7.3312861365
 H         0.8943980323        4.5013008596        4.3854371200
 H        -0.7724014527        5.2877257820        4.0240376029
 H         0.0678697027        5.6297262808        5.4662238949
 H        -4.9397416663        3.0568605603        4.3199983987
 H        -5.3863933791        4.8210589583        4.8140859423
 H        -4.1193759524        4.4999188038       -0.8388461225
 H        -3.0187889383        4.5041687802        0.5481927573
 H        -7.1558156432        2.4039324128        1.6061235414
 H        -7.4743982394        3.4689437444        3.1715571973
 H        -6.0911835339        2.2546849871        3.0516748458
 H        -5.7285852657        5.7591462072        0.4393840385
 H        -7.2375611168        4.6815212695        0.3468220521
 H        -6.7613451756        5.7790345424        1.7464875297
 H        -2.1726591990        3.4143395607       -1.8047698609
 H        -3.2938517670        2.2094176419       -1.3796268751
 H        -2.8254547320       -2.3493895909        0.6517421273
 H        -3.2472268009       -1.3155506792       -0.5596027035
 H        -0.9814268820       -0.1636167014       -2.8456047471
 H        -1.3624503414        1.3336832360       -3.0879474440
 H        -2.6467080302        0.2017735932       -2.2584548577
 H         1.0118880772        1.0084828329        0.0762090413
 H         0.9139539346        0.1218384792       -1.4744471210
 H         0.9431138099        1.8833719553       -1.3277190219
 H        -2.4550311460       -2.9673906257       -1.6545246167
 H        -1.0408473476       -2.0413925928       -1.8266351440
 H        -0.2755438004       -5.0884237365       -2.5345037672
 H        -0.7935630977       -6.5807735382       -3.2671816126
 H         0.0934768493       -6.2446241573       -0.4265183649
 H        -1.1379196671       -7.3878603582       -0.3174056315
 H        -0.7848119026       -6.5736245503        1.2282338717
 H        -3.0170019827       -6.2913739325        1.2698770198
 H        -3.0805299578       -4.4351736085        1.2237738376
 H        -4.0621713869       -5.5231136954       -0.0185177034
 H        -2.5503140155       -4.4645157353       -3.8973391554
 H        -1.9200988995       -5.4647626279       -5.0727726763
 H        -0.4515631742       -3.0098736101       -9.0256876375
 H         0.4040060103       -4.4423642022       -8.1924467620
 H        -3.3993834067       -3.2954273875       -5.4879960556
 H        -3.0370571378       -2.1500706901       -6.8622800850
 H        -2.8313335316       -1.6081201937       -5.1654904058
 H         0.5563275636       -1.9614949324       -6.7837313895
 H        -1.1175799301       -1.2485185432       -7.1984698562
 H        -0.5490654178       -1.0663886448       -5.7296535103
 H        -2.1232732899       -5.3376143722       -9.4873239241
 H        -1.1926918878       -4.6311940723      -10.6241824254
 H         1.5599859741       -7.9473879437       -7.8660528470
 H         0.7070958252       -6.7820784589       -6.9150171052
 H         0.7186365201       -8.3200754519       -6.2922239200
 H        -2.0024359152       -7.0459183004      -11.1382054236
 H        -3.0111093081       -7.0169636450       -9.6709514946
 H        -2.4702742367       -8.5575724420      -10.5305200702
 H         0.9146899268       -9.0469514599       -9.5596037835
 H        -0.6024917495       -9.5212778121      -10.3607112000
 H         0.5294624458       -8.3641420951      -11.0842277186
 Na       -0.1452808195        1.7641704248        2.3521523651
