155

 C         7.1542939395        6.2153618529        4.2596596267
 C         7.1805078247        6.1700515561        2.6902727640
 C         8.5824870936        5.9160589414        1.8370577960
 C         8.3531894415        4.2166053822        1.3776566877
 C         7.2861764680        3.9772810681        0.2540136411
 C         8.6457670074        6.9590277376        0.7055976333
 C         9.8073680276        5.9493182571        2.7626330384
 O         6.1422841590        6.1396832297        2.0768774756
 O         8.9912764097        3.4643900617        2.0506635665
 C         6.3939709052        2.5499796759        0.5241946307
 C         4.9858226145        2.6591897161        1.0324845916
 C         4.5103575141        1.5040785811        1.8889023597
 C         3.1087806456        1.8949713750        2.3196890867
 C         2.8784685276        2.9837886540        3.3898962310
 O         4.1611873594        3.4740562810        0.6327376166
 O         2.1742334975        1.4369609932        1.6800407248
 C         4.3528161330        0.3408021617        0.8397358722
 C         5.3867495106        1.2589596905        3.0962117994
 C         1.4023613693        3.2058136559        4.0115838972
 C         0.8464569107        1.8870667406        4.6781326970
 C        -0.2866646996        2.0269961155        5.7507900698
 C        -1.4713868698        1.1169343442        5.3631060206
 C        -2.5253686649        0.8200449819        6.5551609753
 C         0.5243409877        1.4708175042        7.0468044543
 C        -0.7957824875        3.5075283983        5.9440154721
 O         1.4406154796        0.8517396228        4.4654658258
 O        -1.5098697867        0.5149029682        4.3533783255
 C        -3.8515144512        0.6862735285        5.8461331876
 C        -4.2912373581        2.0147202616        4.9677982837
 C        -5.3753825093        2.2893231615        3.8218865325
 C        -4.5936414725        3.0033098383        2.6955239850
 C        -3.9697747136        4.3875127321        2.5287953076
 O        -3.6657629536        2.9822324381        5.3515956593
 O        -4.5333855295        2.3751012560        1.6559365577
 C        -5.9954744723        0.9787780853        3.2913315016
 C        -6.4833350836        3.1353079067        4.3511347711
 C        -3.2723919400        4.3603701950        1.1812907576
 C        -2.3588690403        3.1494327744        1.0467653944
 C        -2.3136357139        2.2136869565       -0.3730855524
 C        -1.9290064694        0.7549792406        0.2285746297
 C        -2.9308182368       -0.2330407344        0.9951125739
 C        -3.5379017528        2.0803583106       -1.3903213178
 C        -0.9659337894        2.6621240940       -1.0395616920
 O        -1.7368511470        2.8443347200        2.0396104019
 O        -0.7716651969        0.3015709431        0.1076487725
 C        -3.5906658407       -1.2568463708        0.1899341664
 C        -3.2947244063       -2.7224242409        0.7711913826
 C        -2.7008229365       -3.9495205331       -0.2297959715
 C        -3.5525087014       -4.0461298558       -1.6028611199
 C        -2.8801461539       -4.0589471497       -2.9805768743
 O        -3.3162411888       -2.8837324312        1.9861101836
 O        -4.7474636186       -4.2002053421       -1.4675964028
 C        -1.2447505312       -3.3609478304       -0.4259612284
 C        -2.8418939334       -5.3152519694        0.4553592687
 C        -3.3409964719       -2.7735826694       -3.7575978288
 C        -2.0014484093       -2.1492044024       -4.4436666014
 C        -2.0605792008       -1.8812053597       -5.9366619959
 C        -2.7242192247       -3.0292036504       -6.7069254181
 C        -1.7684340205       -4.2297721514       -7.3072853803
 C        -2.9591886293       -0.5863316262       -6.1692251744
 C        -0.6736141058       -1.4785175494       -6.4110020469
 O        -1.0397991964       -2.0173791945       -3.6521323623
 O        -3.9264655735       -3.0756701688       -6.8202258138
 C        -2.5045742509       -5.6530391767       -7.8733436163
 C        -1.5984023545       -6.5921392675       -8.6519534160
 C        -2.2111040837       -8.0335456120       -8.9134521443
 C        -1.7551339799       -9.0077668334       -7.6503254392
 C        -0.2453145922       -9.1283645102       -7.5353281676
 O        -0.4897602287       -6.4076072825       -9.0752592565
 O        -2.5055690738       -9.5264592784       -6.9107955649
 C        -3.8124714258       -8.1092090180       -8.8082313899
 C        -1.6407409126       -8.3618765913      -10.3002824855
 H         7.7666047010        6.8944521644        4.8187170030
 H         6.1802702547        6.6529429356        4.4504106920
 H         7.1459145930        5.2664981428        4.8011332551
 H         6.4962777105        4.7415139874        0.2432710472
 H         7.8217345452        3.9322631167       -0.7329544694
 H         8.3111437870        8.0089959168        1.0764656331
 H         7.9384120399        6.8629570010       -0.1635684688
 H         9.6205540197        7.0175220589        0.1682098617
 H        10.6563271030        5.4277163775        2.4514032792
 H         9.8041268418        6.9904347624        3.0642947804
 H         9.4772114576        5.3439253113        3.6906140607
 H         6.1498194708        2.1292070469       -0.4938147233
 H         6.8856111673        1.8090986210        1.1077396506
 H         3.5456913496        2.9421350593        4.2390825726
 H         3.2168597111        3.9669241936        2.9703885810
 H         3.9251098279       -0.5432600763        1.2528602192
 H         5.3461110666        0.0842479349        0.3890267230
 H         3.6352583582        0.7903148738        0.1397941074
 H         6.2991764667        0.7681491491        2.6755259820
 H         5.7809515399        2.0770728906        3.7286399302
 H         4.9276663695        0.5198140113        3.8411152995
 H         0.7605903088        3.6898355436        3.2380983665
 H         1.5711948801        3.8952888063        4.7575215268
 H        -2.1944454238       -0.0831298198        6.9370810510
 H        -2.4106920981        1.5172246707        7.4468957108
 H         1.5410791279        1.9662118822        7.1283451875
 H         0.5561253211        0.3472110609        6.9391484215
 H         0.1015936514        1.5828774148        8.0732563962
 H        -1.6790678218        3.4067233003        6.4798816616
 H        -0.0716246843        4.1048084565        6.4369026390
 H        -1.2905593855        3.8723971520        5.0050392780
 H        -3.7935538331       -0.1965036763        5.1203207580
 H        -4.6870643733        0.4991924018        6.5268696759
 H        -4.5590701371        5.1888114743        2.7505874282
 H        -3.1949516383        4.3986378753        3.2998365331
 H        -6.4540798413        1.0203706845        2.2913289452
 H        -6.7478382383        0.5239335458        3.9496267557
 H        -5.2715215660        0.1434825575        2.9747814384
 H        -6.2460829772        3.9223390169        5.0715011588
 H        -7.0088116224        3.6035138431        3.4651748489
 H        -7.2517073908        2.4639642470        4.8009540343
 H        -2.7240410142        5.3054383420        0.9718739515
 H        -4.1679516894        4.4688183727        0.5596719606
 H        -2.1762817489       -0.7531579860        1.5781526409
 H        -3.6618504082        0.3338490517        1.5044144188
 H        -3.4784245967        2.9656467251       -2.0191183521
 H        -4.4685656563        2.0066964434       -0.9675579303
 H        -3.4663977139        1.2909241487       -2.0809979659
 H        -0.2238718255        2.7562859043       -0.2718581146
 H        -0.8291652890        1.8476082520       -1.7748588706
 H        -1.1401057925        3.6990377671       -1.5409543330
 H        -4.6194654176       -1.1127129283        0.2253702560
 H        -3.5297252289       -1.1904242133       -0.9122154123
 H        -1.8038533873       -3.9834578757       -3.0077844580
 H        -3.3485384824       -4.9118709009       -3.4779171994
 H        -1.1182327872       -2.4856037444       -1.0195432412
 H        -0.6316482336       -4.1628829429       -0.8986892871
 H        -0.8276564875       -3.2352202616        0.5042711415
 H        -2.2819803627       -5.2443044571        1.3969277461
 H        -3.7388120616       -5.5418334682        0.8684721821
 H        -2.3654823831       -6.1538448329       -0.0001944347
 H        -3.5949925731       -1.9443454337       -3.0444689422
 H        -4.2300275531       -3.0817693799       -4.4014157346
 H        -1.3183213076       -3.8006516599       -8.2758390071
 H        -0.8763378192       -4.4306962780       -6.5867820791
 H        -2.6620463100        0.1549693914       -5.4805671294
 H        -3.9770035128       -0.9412955635       -6.1687222951
 H        -2.6502149289       -0.2081818073       -7.1443659695
 H         0.1430369862       -2.0338352034       -5.8816882489
 H        -0.6603461271       -1.3813744202       -7.5290245318
 H        -0.6084308396       -0.4332682580       -6.1543451214
 H        -2.8650600455       -6.0992064367       -6.9698960635
 H        -3.2582904126       -5.1867011746       -8.5385330912
 H         0.0039561301       -9.3619615577       -6.4730406939
 H         0.1598923006      -10.0041927995       -8.1438813230
 H         0.2854205413       -8.2360436226       -7.6449590755
 H        -3.9906539819       -9.1270728890       -9.2295661452
 H        -4.3128846226       -7.4629504716       -9.4696976897
 H        -4.0779135407       -7.8568419337       -7.7662279172
 H        -0.6559754583       -7.9416062028      -10.3813238920
 H        -1.5470968376       -9.4143474074      -10.4776980800
 H        -2.3156106096       -7.9755670546      -11.0710758627
 Na       -0.0529838744        1.0497402768        2.2083031414
