155

 C         9.3493117033        5.2318498315        2.4708694044
 C         9.3877087683        5.4435467154        0.9492205262
 C         8.6040556593        4.5384732199       -0.1873997331
 C         7.0989389454        4.2627962798        0.0311675072
 C         6.1189127267        5.4406210739        0.0761176681
 C         8.9113874540        5.1496535855       -1.4965727309
 C         9.4295746285        3.2701028738       -0.0186999440
 O         9.9636588076        6.3810622551        0.5152919669
 O         6.7149697432        3.1337057692        0.0483634309
 C         4.6971846034        5.0399559232        0.1098239766
 C         4.6149367736        4.4499578275        1.6716604205
 C         4.1262103645        2.9628461501        1.8839861679
 C         2.8807199052        3.0773953986        2.8312967239
 C         2.9891104452        3.6116245399        4.3287374602
 O         4.9279974990        5.1811130505        2.6003132252
 O         1.8466916313        3.2737700186        2.1989980186
 C         3.7256017158        2.0673411257        0.6440105269
 C         5.3553327348        2.2246193671        2.6235890026
 C         2.2528189717        2.8707658890        5.5017506801
 C         1.5347714150        1.5593252173        5.1898170090
 C         0.7901692521        0.9430078277        6.4458344736
 C        -0.7079723763        0.8093831962        6.0875339394
 C        -1.8272244904        0.4627498506        7.1233811112
 C         1.2771639117       -0.5253586498        6.6667448793
 C         0.6355303041        1.8457809013        7.7911565606
 O         1.7166425709        0.8055770372        4.2506689419
 O        -1.0111723532        0.9416577526        4.9013970315
 C        -3.1156946052        1.0778017701        6.6437362371
 C        -3.1064315939        2.5709981290        6.3852231918
 C        -4.4049143118        3.2350848080        5.7406596755
 C        -4.4369158986        2.9723259863        4.2227733433
 C        -3.6020144592        3.9288919916        3.3135351828
 O        -2.1732059974        3.2876018341        6.6851454837
 O        -4.9407073343        1.9310313997        3.8874816572
 C        -5.6290151131        2.6467333508        6.4784539317
 C        -4.2634697950        4.7764818948        5.9573938534
 C        -3.7241610167        3.3394355138        1.8738292284
 C        -2.2962019088        3.0960910216        1.3396247534
 C        -2.3892471114        2.0444814769        0.0515900073
 C        -2.5944371229        0.6801621569        0.7506025284
 C        -3.7573654526       -0.2827904647        0.4764399701
 C        -3.4770999470        2.4216928077       -0.8313252864
 C        -1.0449890276        2.0020810386       -0.6991303052
 O        -1.2575340492        3.6635973052        1.7136730718
 O        -1.6626835176        0.3215539031        1.5329611156
 C        -3.2223163870       -1.3814365078       -0.4820173876
 C        -3.3534213670       -2.8370205202        0.1441147775
 C        -3.6139807120       -4.1932740939       -0.6156945271
 C        -3.8926899354       -3.9409506254       -2.1097837830
 C        -2.8331227810       -3.5328605407       -3.1469753393
 O        -3.2247610581       -3.0487684022        1.3654241428
 O        -5.0258144364       -4.0341683632       -2.5427613848
 C        -2.2876193997       -5.0037137826       -0.5199140261
 C        -4.8010509456       -4.8006375222        0.1696925522
 C        -3.5109167812       -2.9287853027       -4.4237006001
 C        -2.4155984512       -2.1743165931       -5.3628539242
 C        -2.7731549773       -2.3380298287       -6.9318753811
 C        -3.2032692052       -3.7288169483       -7.4313896761
 C        -2.2275621789       -4.9701594444       -7.1299862376
 C        -4.1215005473       -1.4915941645       -7.0387157600
 C        -1.4220554228       -1.9141366722       -7.6400206097
 O        -1.6492209775       -1.3612589947       -4.8347162944
 O        -4.3171664679       -3.8760727175       -7.9972079118
 C        -2.9797083751       -6.3645448684       -7.3726018753
 C        -2.4272897356       -6.8788321306       -8.7401530790
 C        -2.6216129343       -8.4022749135       -8.9535586654
 C        -1.8627090785       -8.9122818130       -7.6495694450
 C        -0.2582332347       -8.8116253828       -7.5690407592
 O        -1.8380666086       -6.1064238692       -9.4744874244
 O        -2.4848220178       -9.5174065959       -6.8416740232
 C        -4.0607277251       -9.0220369362       -8.8480951239
 C        -1.9908544958       -8.7164631054      -10.3085733870
 H         9.7851712312        4.3475456071        2.8876596443
 H         9.7981127566        6.1398670041        2.9172407772
 H         8.4002565465        5.2698304928        3.1168315128
 H         6.4053183421        6.0049766484        0.9905484714
 H         6.5816312586        6.1037647318       -0.6554958070
 H         9.9006128039        4.9277169849       -1.7996831092
 H         8.7891718234        6.2441823357       -1.4240839164
 H         8.2167834471        4.7970170495       -2.2529747662
 H         8.9824654523        2.4998811419       -0.7164340991
 H        10.4636256605        3.5658596739       -0.1329187032
 H         9.3543222343        2.8618416142        0.9376086246
 H         3.9807217230        5.8686391460       -0.1240037531
 H         4.5808659865        4.2434207399       -0.5452770277
 H         4.0933794938        3.4765779218        4.5720373464
 H         2.7648784432        4.6319927951        4.3043173770
 H         3.4971473342        1.1684773196        1.2070924550
 H         4.5714266304        1.9174952452        0.0031564750
 H         2.8114108922        2.4340598041        0.2706235702
 H         6.0834226789        1.8208389800        2.0248394844
 H         5.8693497290        2.8185926807        3.3230405280
 H         4.9547182564        1.3424271384        3.1893402099
 H         1.6704790227        3.6091757174        6.0781500109
 H         2.9827300229        2.4145464560        6.1744580755
 H        -2.0086285671       -0.6773209134        7.0354388524
 H        -1.5408063291        0.6818419177        8.1267010611
 H         2.3428373190       -0.6157004225        6.7782193191
 H         0.8896376089       -1.1168820967        5.7623491819
 H         0.7852286457       -1.0122130610        7.5695731292
 H         1.5698002218        2.3474230112        8.1354241762
 H        -0.0988080666        2.6120514521        7.6453138264
 H         0.3467206719        1.3777110505        8.7459446992
 H        -3.1329420938        0.7225173009        5.6179726270
 H        -4.0672114296        0.6981228285        7.0868743578
 H        -4.1359428490        4.9819727558        3.3805392938
 H        -2.5816738733        4.0029049956        3.7849720571
 H        -6.4169178428        3.3200257427        6.2310110115
 H        -5.3619634353        2.6187566280        7.5801873041
 H        -5.9572904412        1.6381767179        6.1141429832
 H        -3.3435789144        5.0257816151        5.4081591521
 H        -5.0967468470        5.2397507372        5.4810968149
 H        -4.3472979648        4.9655702796        7.0258993621
 H        -4.3072283296        4.0467106127        1.2080333361
 H        -4.1922581599        2.3893624049        2.0047305573
 H        -4.2469947526       -0.8855449551        1.3891897340
 H        -4.6004378057        0.2137824406        0.0096956370
 H        -3.1318297859        3.4565679083       -1.3219378909
 H        -4.4493993033        2.4186357082       -0.3503943060
 H        -3.5652951443        1.7185391105       -1.6930673591
 H        -0.2576584129        2.2744036672       -0.1092261921
 H        -1.0549872696        0.9418633117       -1.0734141471
 H        -1.0919648246        2.5545964882       -1.6612747283
 H        -3.6381047638       -1.2499280167       -1.4775802578
 H        -2.1030198913       -1.4205449718       -0.3505517353
 H        -2.1556809775       -2.7824426962       -2.6946180173
 H        -2.0620903801       -4.3136115183       -3.3806375234
 H        -1.3626760628       -4.5686542932       -1.0912177970
 H        -2.3516099355       -6.0505949951       -0.7354965927
 H        -2.0463455040       -4.8228514556        0.5772281860
 H        -4.2993829595       -5.3492928658        0.9369739065
 H        -5.2892506005       -4.0743400533        0.6530018855
 H        -5.4399683592       -5.4096125418       -0.3850245501
 H        -4.1460392419       -2.1243434951       -4.1088886804
 H        -4.1854529542       -3.6173308157       -4.9064213711
 H        -1.2903453657       -4.7862604565       -7.7247564090
 H        -1.9128159298       -4.9238124073       -6.0671000560
 H        -3.8139998206       -0.4648590343       -6.8188192954
 H        -4.8563953124       -1.9824292999       -6.4315292190
 H        -4.4590955823       -1.5544447831       -8.0463667228
 H        -0.7687886418       -1.8056400686       -6.7962234829
 H        -1.1277732769       -2.4424077136       -8.4983154993
 H        -1.5807185686       -0.9580748337       -8.1399373967
 H        -2.9881133829       -7.1167604866       -6.6102508880
 H        -4.0998417601       -6.2872115153       -7.4790206638
 H         0.2092667457       -9.4268785209       -6.7890583178
 H         0.3434319540       -8.8054803826       -8.5261208099
 H        -0.0890787795       -7.8309128704       -7.1677937010
 H        -4.5675417317       -8.9310631004       -9.8078515187
 H        -4.6899961669       -8.3967036768       -8.1271944932
 H        -3.9493833818      -10.0910141576       -8.7100011324
 H        -1.0173856810       -8.3088865841      -10.3085396280
 H        -1.8517670271       -9.7780530461      -10.5232029231
 H        -2.5564432936       -8.2888484345      -11.1148659835
 Na        0.1779035804        1.5272841123        2.3710137177
