155

 C        10.0251013741        3.8202451758        0.8035308860
 C         9.9032525113        4.5713608174       -0.4909630404
 C         8.4608184183        4.3183433193       -1.2079261878
 C         7.1127424622        4.4702149688       -0.3249677535
 C         7.0880156083        5.3507956995        0.9160463259
 C         8.3057918217        5.3672116431       -2.4894788073
 C         8.4198669227        2.7483458616       -1.7245634542
 O        10.8624164931        5.0907102172       -1.0321672990
 O         6.1266805972        3.8972965880       -0.6414477505
 C         5.4667487558        5.9039894003        1.2048194194
 C         4.8696958360        4.8973268310        2.2392283128
 C         3.9432740391        3.6247884953        1.8804726818
 C         2.7381599686        3.6301376954        2.9464475220
 C         3.1115660410        3.6005142697        4.5354184729
 O         5.3943995939        4.9235760448        3.3725152931
 O         1.5840289668        3.4814707317        2.5865005609
 C         3.3012356011        3.8851773420        0.4056270778
 C         4.7218594579        2.3128129117        2.0092577442
 C         2.0667479028        2.7856212448        5.3370568185
 C         1.9255227170        1.1387299306        5.1558776325
 C         1.1343401798        0.3123669415        6.2412066393
 C        -0.2786686355        0.9497530012        6.1739702525
 C        -1.3567082454        0.7785779642        7.2901431875
 C         1.3443587122       -1.2416453949        6.0683180375
 C         1.9032820633        0.5866258415        7.5067872415
 O         2.2812176854        0.6780124779        4.1050718288
 O        -0.7270716012        1.6052778566        5.1541909181
 C        -2.5964212798        1.4619314496        7.0041632327
 C        -2.4494304845        2.9494528177        7.1202544721
 C        -3.6946566688        3.9908233145        6.7009720494
 C        -4.0460039546        3.4101277860        5.2915030947
 C        -3.6442440020        3.9417386803        3.9415623274
 O        -1.4800631201        3.4878803835        7.5475672090
 O        -4.6034337675        2.3407723688        5.3410302112
 C        -4.8678422682        3.8845878420        7.6541163383
 C        -3.1354722058        5.4122596881        6.7411395152
 C        -4.0269796182        3.1342315306        2.6989021656
 C        -2.8555227907        2.8324560195        1.8184996169
 C        -2.8924516873        1.8870638422        0.6580158047
 C        -2.2703519685        0.4959416121        1.2248082758
 C        -3.0357229704       -0.7929577932        1.3851600504
 C        -4.3800843902        1.6990236290        0.1864724471
 C        -1.9026915120        2.4547969469       -0.6233401473
 O        -1.7681778829        3.3623694675        2.1673860945
 O        -1.1644663569        0.5412259493        1.7965506319
 C        -3.7978007737       -1.4117134318        0.2035538467
 C        -3.4696511733       -2.9521391337        0.2746533137
 C        -4.0456626568       -3.9033224243       -0.7819897092
 C        -4.4079080640       -2.9902404770       -2.1470229865
 C        -3.7021478790       -3.5031324990       -3.5118421788
 O        -2.7922751172       -3.2958865851        1.1949995381
 O        -5.2526036919       -2.1105746985       -2.1377693476
 C        -3.1742395912       -5.0503218102       -1.2402689657
 C        -5.4857244981       -4.3296961402       -0.2713278079
 C        -3.9408881515       -2.4605916756       -4.7146333585
 C        -2.9088172502       -2.6226125201       -5.9353760124
 C        -3.3534463361       -2.2491534110       -7.4010545133
 C        -3.8844702858       -3.6417294811       -8.0276065735
 C        -3.0328455938       -4.7821423715       -8.7636605991
 C        -4.5296350988       -1.2374342844       -7.4865987460
 C        -2.0871722928       -1.7691395112       -8.1455143075
 O        -1.8242802836       -3.1414948844       -5.8927998067
 O        -4.8508579023       -4.0486420883       -7.3573697068
 C        -3.0860022438       -6.2431690628       -8.0863553177
 C        -2.2667357729       -7.1990046052       -8.9772382713
 C        -2.5890026293       -8.7988572940       -8.8004764568
 C        -1.5259365123       -9.6480622165       -7.8975199403
 C        -0.0790463333       -9.5134458936       -8.1878007636
 O        -1.3816059251       -6.7858536900       -9.6445831977
 O        -1.8963968212      -10.2794921515       -6.9046933556
 C        -4.0290241756       -8.9197429407       -8.3966869889
 C        -2.3132866577       -9.5753178624      -10.1664890121
 H         9.5880725222        2.7830612850        0.8100402823
 H        10.9554265598        3.6519864635        1.1248279607
 H         9.4374706409        4.2366336805        1.6117054264
 H         7.4858617670        4.9830865031        1.8715459073
 H         7.5444968207        6.3293237681        0.6996158826
 H         8.4263595377        4.8434937866       -3.4212925659
 H         9.1947611707        6.0700727606       -2.2628632208
 H         7.4495416398        6.0484645501       -2.4908167834
 H         7.4780306100        2.4136777172       -2.1782690282
 H         9.1698383058        2.6223242388       -2.4935407586
 H         8.7801446532        2.1192932835       -0.9095368962
 H         5.3616060928        6.8679507158        1.7903364697
 H         5.1230284749        6.0545748709        0.1956542355
 H         4.0565210743        3.2590823003        4.8085125628
 H         3.0864913267        4.6512014796        4.9068008874
 H         2.6320918535        3.1057754311        0.1999452622
 H         4.1379399674        3.7684671627       -0.2346293769
 H         2.8003160137        4.8753909128        0.4591304111
 H         5.7225318211        2.5141257569        1.8251693122
 H         4.6165487979        1.8290767824        2.9223422275
 H         4.3731104827        1.6184690159        1.2138210041
 H         1.0204654030        3.2964274294        5.2281085083
 H         2.2464482085        2.9116141072        6.4259240961
 H        -1.6236504066       -0.1881557442        7.5572745030
 H        -1.0051003556        1.1687983384        8.3087402490
 H         2.0115472123       -1.3680413747        5.2238195453
 H         0.3059315120       -1.6315202395        5.7336143376
 H         1.6281870695       -1.7072498521        7.0502619717
 H         2.9758457270        0.2142240595        7.6236935105
 H         2.0700294944        1.5748254957        7.8242175883
 H         1.2602786533        0.2533316526        8.3066690160
 H        -3.0247855079        1.0689368142        6.0417976000
 H        -3.1430866999        1.2441355343        7.8793085807
 H        -4.0956937718        4.9619875219        3.9450017614
 H        -2.5109716756        4.1259978039        3.9815487672
 H        -5.7915065420        4.4442940321        7.2985178433
 H        -4.6116999589        4.3784466759        8.6198278906
 H        -5.0587163272        2.8080371445        7.8027525502
 H        -2.3179509665        5.5424297818        6.0540752694
 H        -4.0113056902        6.0122940132        6.5302850006
 H        -2.6623399920        5.6332999604        7.7335437324
 H        -4.8074685777        3.5093555996        2.0730011873
 H        -4.4704722385        2.1364559405        3.0051019124
 H        -2.3155757519       -1.6028120140        1.7085766937
 H        -3.6596788684       -0.4103364356        2.3076180610
 H        -5.0371006709        2.4316623733        0.7851237229
 H        -4.7811623756        0.7314079987        0.5481338846
 H        -4.2872291765        1.7960757229       -0.9237957226
 H        -1.5019771151        1.7061009906       -1.1990017355
 H        -2.5289694063        3.1096723928       -1.3252955150
 H        -1.1728017289        3.0647047716       -0.0992691585
 H        -4.8225715685       -1.3297465356        0.0636633740
 H        -3.5206667791       -1.1177393683       -0.8609381174
 H        -2.6532217561       -3.3646956027       -3.4816867228
 H        -4.1389306402       -4.4581196688       -3.7295896760
 H        -2.1458039219       -4.6169660624       -1.5766724710
 H        -3.4285929364       -5.6671205834       -2.1160053892
 H        -3.0785060608       -5.7943868611       -0.4308796774
 H        -5.2581377599       -5.2767299087        0.1447968454
 H        -5.8900875515       -3.6471045435        0.3772998108
 H        -6.0980091915       -4.4490790628       -1.0865997127
 H        -3.6361285006       -1.5537526079       -4.2644286624
 H        -4.9124798204       -2.4530194638       -5.1412867036
 H        -3.3718986227       -4.9642917819       -9.8000247135
 H        -2.0450791904       -4.2950283646       -8.8698972393
 H        -4.6529591460       -0.6732569331       -6.5608895012
 H        -5.5173643832       -1.7054484488       -7.6468412953
 H        -4.3573793352       -0.5277671484       -8.3264184194
 H        -1.2416578507       -2.0600509716       -7.5703541706
 H        -1.8207847051       -2.2464105878       -9.0538631173
 H        -2.2780389321       -0.6697433608       -8.1582892276
 H        -2.5849306440       -6.3357270780       -7.1499295824
 H        -4.1530807408       -6.5779848269       -7.9260872379
 H         0.1908719614       -8.5957558700       -8.7960131393
 H         0.4841927541       -9.5416215163       -7.2746828116
 H         0.3192906488      -10.3369896442       -8.5710120901
 H        -4.5133982455       -9.7357058041       -8.9735953347
 H        -4.6845315916       -8.0153678697       -8.5209438164
 H        -4.2726410728       -9.3555432300       -7.4094204272
 H        -1.8264732210       -8.9495691927      -10.8560769905
 H        -1.6837203055      -10.3765415528       -9.9152250760
 H        -3.1734502610       -9.9398865101      -10.6440559069
 Na        0.1253299520        1.8967604235        3.1014057010
