155

 C         9.9298399879        2.6187191695       -0.6786073532
 C         9.6029089013        4.0715113919       -1.0326674068
 C         8.2190284341        4.2663327032       -1.8029034767
 C         7.0190688175        4.0475815714       -0.5546490560
 C         7.3587527024        5.1389511141        0.6245084427
 C         7.9868272078        5.7223753991       -2.1928421932
 C         7.9891867035        3.3047651269       -2.8617183744
 O        10.1871847371        5.0539309454       -0.5736073757
 O         6.0551810978        3.3353249174       -0.6815960781
 C         6.1287095045        5.6853972963        1.3871335381
 C         5.5047862385        4.5975134342        2.2946224526
 C         4.0527231324        4.0425871449        1.8696192814
 C         3.0079244019        3.8714429170        3.0647617423
 C         3.4012735001        3.6861059054        4.4653021467
 O         6.1123152996        3.9388072007        3.1151389573
 O         1.7734811946        3.6882940744        2.7555246451
 C         3.3444934566        4.9136660820        0.6902448525
 C         4.3365795799        2.6161336191        1.3368284306
 C         2.3333485956        2.7732310363        5.2689752862
 C         2.0465057055        1.4396357652        4.8147982100
 C         1.3539007952        0.5074121181        5.8360688895
 C        -0.2299680100        1.0065247239        6.0184414386
 C        -0.7156171403        1.0137879440        7.4304797317
 C         1.2165668864       -0.8803575978        5.2246778303
 C         2.0722433556        0.4694717926        7.1951453094
 O         2.2718164372        1.1935707106        3.6073086013
 O        -0.8584984567        1.1501146963        4.9722780507
 C        -2.0085198678        1.7609448793        7.2945114496
 C        -1.8521783684        3.3335897093        7.4601575488
 C        -3.3013732069        4.1952976515        7.2868184610
 C        -3.9114844694        3.9140402315        5.8423071442
 C        -3.5918029128        4.7313219365        4.5143320071
 O        -0.8439600202        3.9440769576        7.1424980935
 O        -4.7814736075        3.0949580675        5.7501810771
 C        -4.4008143367        3.7919693385        8.2891508903
 C        -2.8879681437        5.7196241072        7.4486476784
 C        -4.0616102891        3.7884360757        3.2964703001
 C        -3.0253231553        2.7410440896        2.8448926306
 C        -3.3064653610        1.6484999814        1.7871679717
 C        -2.6319813242        0.2747440867        2.0581809545
 C        -3.2365338350       -1.0762195884        1.7921627811
 C        -4.7871387482        1.3485432058        1.4144892930
 C        -2.4903210323        2.2261529194        0.4344226567
 O        -1.8913961806        2.8362078862        3.3586407800
 O        -1.4467467176        0.2744246485        2.4741274047
 C        -2.7505964629       -1.6192664087        0.3874097977
 C        -3.2761350121       -3.0743782024       -0.0109108717
 C        -4.3692737531       -3.5424619077       -1.0786371876
 C        -4.0654892515       -2.7359484861       -2.4284577075
 C        -3.8388017748       -3.4118412000       -3.7263568323
 O        -2.6984891990       -3.9521399738        0.5365581517
 O        -3.9919892964       -1.4997438415       -2.4267059241
 C        -4.2318755567       -5.0209801834       -1.1157985526
 C        -5.6628220255       -3.1638741001       -0.4797295397
 C        -4.2166044186       -2.6335627935       -4.9890840138
 C        -3.1586761245       -2.7936048838       -6.0120640272
 C        -3.4863917424       -2.6205996991       -7.4741312794
 C        -4.1381199876       -4.1457398649       -7.8560639485
 C        -3.2014425360       -5.1292845851       -8.4377106931
 C        -4.5713322777       -1.6213677366       -7.8900155839
 C        -2.2673866976       -2.3420211056       -8.4525987679
 O        -2.0283042063       -3.0801763089       -5.6620302163
 O        -5.3405740400       -4.3191485126       -7.6800536243
 C        -3.4381019741       -6.5520646754       -8.1492848426
 C        -2.6040515711       -7.5187733690       -9.1593324754
 C        -2.7309083277       -9.1863036294       -9.0989556578
 C        -1.5297242629       -9.1869766175       -8.0473083732
 C        -0.1987425710       -9.5414929617       -8.4825118007
 O        -1.5677886944       -7.1368521265       -9.7202402984
 O        -1.8901664440       -8.8524499603       -6.8727360764
 C        -4.0257687257       -9.8907171835       -8.6944175076
 C        -2.3375126882       -9.5529545173      -10.6138397903
 H        10.4521590390        2.1104866696       -1.4454378461
 H        10.3389702770        2.3878067599        0.3030166441
 H         8.9547242807        1.9214135044       -0.6441620239
 H         7.9457420965        4.4939715669        1.3336874014
 H         7.9709662269        6.0177142113        0.3935849967
 H         8.6407794845        6.3360307929       -1.5766104598
 H         6.9401896348        5.9033659145       -1.9128534475
 H         8.1866912673        6.0059072503       -3.1907938324
 H         7.0020403952        3.1073356638       -3.0865696120
 H         8.6820424866        3.4949703580       -3.6923018152
 H         8.3749465425        2.2818639567       -2.5532406650
 H         6.2675033454        6.6425679152        1.7779582229
 H         5.3813913869        5.9826229539        0.5544793744
 H         4.4160891169        3.2766240909        4.6496764978
 H         3.5423277498        4.6285419278        4.9889905001
 H         2.3653499021        4.4467037321        0.6767141645
 H         3.8633045937        4.8061455945       -0.2188481300
 H         3.2069499776        5.9836256560        1.0362435188
 H         3.8443961395        2.3598138576        0.5062117556
 H         5.3734749923        2.5357252058        1.1967107083
 H         4.0828117517        2.0206743992        2.1865687511
 H         1.3347702708        3.2224036632        5.3422599524
 H         2.6540011861        2.8762505740        6.3506902847
 H        -0.6530125155       -0.0276186382        7.8730760017
 H        -0.0729108706        1.5438073118        8.0547976638
 H         2.1178385964       -1.3466507963        5.0598063137
 H         0.6407575931       -0.6491030579        4.3208317610
 H         0.6092846883       -1.4839198574        5.9027143519
 H         3.0479761063       -0.0810411598        7.0921145362
 H         2.3410326309        1.5179102677        7.5315157665
 H         1.7103492468       -0.0940239748        7.9885857045
 H        -2.5354772119        1.5140319132        6.4161198302
 H        -2.6868317732        1.4831734843        8.1659306655
 H        -4.1819339695        5.5945440283        4.5813498873
 H        -2.5734031260        5.0461046061        4.3641794570
 H        -5.3095576746        4.4275345357        8.1249226155
 H        -3.9804996894        3.6684632009        9.2369549684
 H        -4.7803727894        2.8040429245        8.1359381978
 H        -2.3762684315        6.1082448770        6.5742022585
 H        -3.7901083025        6.3969735180        7.5409039937
 H        -2.3897646699        5.8523839902        8.3974960600
 H        -4.2665693158        4.3997460687        2.3701283791
 H        -4.9431575621        3.1879439006        3.4385345892
 H        -2.6765227737       -1.6577650976        2.5397835259
 H        -4.2887739281       -1.2691895056        1.9834843744
 H        -5.4157334975        2.2578387908        1.5638245541
 H        -5.1558887467        0.6352649915        2.0698258380
 H        -4.9532635391        1.1576902760        0.4190333422
 H        -2.4574976814        1.2720512971       -0.1516414986
 H        -3.1624979043        2.8818259597       -0.0777936043
 H        -1.5170113530        2.6807253437        0.4700149469
 H        -3.0873125523       -0.8448366912       -0.4593605249
 H        -1.7435530603       -1.4245879206        0.4220745848
 H        -2.7760572602       -3.5252140200       -3.7139561784
 H        -4.3081760611       -4.3805053556       -3.6833297956
 H        -3.1407723877       -5.2240392144       -1.2080922395
 H        -4.7048563649       -5.6139370731       -1.8249458606
 H        -4.4191404077       -5.5515427969       -0.1118884178
 H        -5.5443442930       -3.6092678207        0.5207397776
 H        -5.5892444564       -2.1301068393       -0.2875574571
 H        -6.5077506091       -3.6012667648       -1.0067421632
 H        -4.2458951264       -1.5569461001       -4.7597967828
 H        -5.1828575182       -2.9242839021       -5.4011640482
 H        -3.2372673740       -4.9529872535       -9.4811231754
 H        -2.2707678412       -4.9221672190       -7.9254362898
 H        -4.3270282422       -0.6078048965       -7.5890957866
 H        -5.5208414334       -1.8036254757       -7.3879675451
 H        -4.8163813640       -1.5082631334       -8.9483903100
 H        -1.3544853774       -2.8227746046       -8.1938413942
 H        -2.6519924101       -2.6372117674       -9.4103948838
 H        -2.0551825050       -1.3083096266       -8.6417244633
 H        -2.9863334125       -6.7459235790       -7.1632114332
 H        -4.4094704938       -6.7859820998       -8.2046077803
 H         0.0821163842       -8.9242548034       -9.3230111364
 H         0.5493652791       -9.3114752116       -7.6860457559
 H        -0.0620653789      -10.5615572081       -8.8331390637
 H        -4.0382167876      -10.8566753115       -8.1801444359
 H        -4.7585891613      -10.1386711391       -9.3830419936
 H        -4.5150884362       -9.2481996728       -7.9028747576
 H        -1.7396847234       -8.7465595509      -11.0683454696
 H        -1.6766866936      -10.3584248523      -10.5824192781
 H        -3.2138750993       -9.8696072440      -11.1002156429
 Na        0.0848867822        1.7765787575        2.6876077461
