155

 C         9.9264591220        2.4796741065       -1.1974759624
 C         9.4385700391        3.9499262954       -1.2450308292
 C         8.1615259827        4.4534114196       -1.9102597332
 C         7.0871954438        4.2641881780       -0.6876633634
 C         7.5013385013        4.9794335270        0.6016616387
 C         8.2848795338        5.8814568021       -2.6101727807
 C         7.8289061806        3.4887538915       -3.2643480334
 O         9.8976827846        4.7124946657       -0.4338128087
 O         6.3665209519        3.2647829076       -0.6750807004
 C         6.3102215938        5.4972855370        1.4036213537
 C         5.5827451273        4.3506294001        2.1576352951
 C         3.9695580938        4.0321317070        1.7678722884
 C         2.9661325347        3.9176974320        2.9612860085
 C         3.5173130640        3.5283831036        4.3415308348
 O         6.0613161914        3.8168064870        3.1247696044
 O         1.7850561638        3.7949893490        2.7731735637
 C         3.3098670315        5.1606201611        0.8681733552
 C         3.8703658405        2.5765642575        1.2731130126
 C         2.5898257556        2.7856083270        5.3684577157
 C         2.1104500041        1.4684620101        4.8148081857
 C         1.2696856527        0.4233270952        5.7960057743
 C        -0.0815645537        1.0058166388        5.9974481789
 C        -0.8469072898        1.1406310569        7.3719388880
 C         1.2620565084       -0.9243931887        5.0694085840
 C         2.1354711687        0.2626403157        7.1511275630
 O         2.3101843282        1.3508098390        3.6323517794
 O        -0.7266086174        1.2730556793        4.9853496420
 C        -2.1487452224        2.0010881330        7.5117120196
 C        -1.8856971046        3.5348555444        7.0809712172
 C        -3.1762607843        4.4296104104        7.4072244695
 C        -3.9026961039        3.9853102698        6.0814638434
 C        -3.4809438807        4.5523111243        4.6850108877
 O        -0.7781123034        4.0217105046        6.8130484218
 O        -4.5054222082        2.9224466283        6.1197059039
 C        -3.9526399745        3.8196733532        8.5332712304
 C        -2.8915893379        5.8619362620        7.7654118986
 C        -4.0992630915        3.7366622148        3.5940944559
 C        -3.0266752124        2.6499993711        3.1308314346
 C        -3.4094313824        1.6038835926        2.0047987970
 C        -2.6814952621        0.2486582786        2.2120030104
 C        -3.2648278070       -1.1390895921        1.7357484915
 C        -4.9623228365        1.5516271043        1.7794491538
 C        -2.8860232352        2.1941897170        0.6979449126
 O        -1.8680633031        2.8227773842        3.3848141725
 O        -1.5684836015        0.0574015062        2.5815978273
 C        -2.9114050782       -1.5907165690        0.2822117087
 C        -3.2319218681       -3.1068640597        0.1442641248
 C        -4.3400406228       -3.3862265302       -0.9367652575
 C        -3.9521352933       -2.6849224647       -2.3608098388
 C        -3.9997613225       -3.5028511275       -3.6554866947
 O        -2.4622336808       -3.9332936711        0.6368205504
 O        -3.6326536255       -1.5457996950       -2.3945297899
 C        -4.7755278471       -4.8587306532       -1.1044050714
 C        -5.6782059162       -2.5784104777       -0.3987354823
 C        -4.2348282853       -2.7802444046       -5.0814682075
 C        -3.1311623742       -2.9117796208       -6.2749618015
 C        -3.5513520012       -2.7402223568       -7.6776877491
 C        -4.0872184127       -4.1982738597       -7.8644957643
 C        -3.0799289977       -5.3056580080       -8.3799832930
 C        -4.7006080980       -1.6859056473       -7.8288122805
 C        -2.3728669926       -2.3799968084       -8.6408411553
 O        -1.9496979329       -2.9294936542       -5.9515651252
 O        -5.1530332760       -4.5932590864       -7.5597427746
 C        -3.8388987265       -6.6996505973       -8.6308143988
 C        -2.7845870304       -7.4757485793       -9.4296008605
 C        -2.7385605511       -9.1366978217       -9.1176832262
 C        -1.5726506732       -9.0725054217       -8.0641355223
 C        -0.0741306043       -9.5210871024       -8.3857864545
 O        -1.8407678901       -6.9779512831      -10.0034361199
 O        -1.8857594914       -8.8228370928       -6.9673267262
 C        -4.0450895475       -9.8166039739       -8.5086588740
 C        -2.2680569765       -9.8547876444      -10.4818767566
 H        10.3723536380        2.1028238094       -2.0937662123
 H        10.5843911158        2.3646944892       -0.3051965543
 H         9.2172225789        1.7640715786       -0.9504237769
 H         8.1203982103        4.2980366407        1.1293293158
 H         8.0568001660        5.8903205840        0.3808589297
 H         8.6115765101        6.7071534895       -1.9712964194
 H         7.3558932195        6.1403980823       -2.9991357082
 H         9.0470920548        5.7591525773       -3.3946171467
 H         6.6935163459        3.4779340227       -3.2383186725
 H         8.3073005258        3.8636203203       -4.1684001860
 H         8.0445330015        2.4647296219       -3.2215733275
 H         6.6418889919        6.2082417622        2.2225879501
 H         5.7745329091        6.1541999193        0.8131174678
 H         4.4759913331        2.9929489788        4.3240877830
 H         3.8320414875        4.4069484896        4.9522093096
 H         2.2012588451        5.0207024653        0.8003402449
 H         3.9351046460        5.1714187588       -0.0853622806
 H         3.5615202819        6.0547871780        1.3853057963
 H         2.7617066168        2.4340338186        0.9426355755
 H         4.5676243740        2.4533090295        0.3655916535
 H         4.1226355734        1.9592286471        2.1506951733
 H         1.7748800643        3.4737760340        5.6043514498
 H         3.1298857552        2.7208425536        6.2601292850
 H        -0.9308926913        0.1768452099        7.8144989351
 H        -0.1536556388        1.6486744389        8.1299865093
 H         2.2795257072       -0.9305201444        4.5636587620
 H         0.5719988482       -0.8605128210        4.2754736217
 H         1.0180582587       -1.7072239762        5.7594102542
 H         3.1647159725        0.1221005569        7.1128539182
 H         1.9809666725        1.0465591022        7.8552441496
 H         1.8471154050       -0.7225885488        7.6201598549
 H        -2.8850629917        1.6249856160        6.7471242491
 H        -2.6098887314        1.8574964540        8.4307842613
 H        -3.7960915400        5.6718088575        4.6926938587
 H        -2.3949374397        4.5153580800        4.6760333971
 H        -4.9444690489        4.0582604599        8.3729434107
 H        -3.6223894683        4.0819761867        9.5751480109
 H        -4.0400903952        2.7237516216        8.5646067733
 H        -2.0323444477        6.2592337347        7.1871625969
 H        -3.6499973117        6.6008137532        7.6228605082
 H        -2.6873069321        5.8473214120        8.8540157883
 H        -4.3780649697        4.2041900844        2.6739701533
 H        -4.9955947785        3.2190037463        3.9983605796
 H        -3.0107306803       -2.0036660625        2.3594420262
 H        -4.3391220814       -1.1853721087        1.7244871697
 H        -5.5102316092        2.1556056496        2.4667317171
 H        -5.4252985652        0.4926444778        1.6969905359
 H        -5.3041566004        1.9927962462        0.7550999374
 H        -2.9877029865        1.6220161338       -0.2382533861
 H        -3.1952470040        3.2403794723        0.7286720628
 H        -1.7445445422        2.2474670818        0.8745722921
 H        -3.3355071284       -0.9326904465       -0.4175016861
 H        -1.7465892427       -1.4907097105        0.2197344776
 H        -3.1128664438       -4.2577527217       -3.6709696795
 H        -4.8832915051       -4.1882600568       -3.4883655002
 H        -4.1094645704       -5.3907429186       -1.6825267872
 H        -5.7792144640       -5.1341628508       -1.4668339593
 H        -4.6413688366       -5.2893438204       -0.1558343716
 H        -6.2585525241       -3.2208336364        0.2802242183
 H        -5.2365231909       -1.7434931895        0.2386210820
 H        -6.2351601640       -2.3180617281       -1.3401973887
 H        -4.3409277986       -1.6815826795       -4.8473797235
 H        -5.2344674113       -3.1020470507       -5.4845950289
 H        -2.6834862550       -5.0462964424       -9.3879705958
 H        -2.3644651908       -5.4754748323       -7.5588115846
 H        -4.7666889995       -0.8337018301       -7.1463262232
 H        -5.6729281602       -2.1515899290       -7.7714646925
 H        -4.6610679198       -1.1797093015       -8.7705973453
 H        -1.3963310373       -2.5754649097       -8.1524615073
 H        -2.5470944497       -2.7073169877       -9.6575591084
 H        -2.2148674719       -1.3030444354       -8.6642017658
 H        -3.9112584096       -7.2374036514       -7.6796193331
 H        -4.8668432277       -6.4846915783       -9.1677642441
 H         0.5016108020       -9.1682302943       -9.2184645162
 H         0.5211856397       -9.4171734514       -7.4987433154
 H        -0.1913703341      -10.6565172000       -8.6850219420
 H        -4.0564383578      -10.8557140884       -8.7535110181
 H        -5.0004790639       -9.5875831667       -9.0183486632
 H        -4.2849353313       -9.7090923887       -7.5125959892
 H        -1.8391092583       -9.0788940181      -11.1159649618
 H        -1.5127050702      -10.7125617194      -10.3365062674
 H        -3.2069048978      -10.3423767504      -10.8810402141
 Na        0.2343425120        1.8306647211        2.9442645553
