155

 C         9.2808433841        2.6209896938       -3.2566810985
 C         9.0018380408        3.4441491956       -1.9979054137
 C         8.1284577638        4.6951387455       -2.2954368866
 C         7.0230134498        4.2668448834       -1.2574970498
 C         7.3540706342        4.4541233542        0.2973091367
 C         8.8507832381        5.9479156045       -1.8618648124
 C         7.3874774103        4.9038795810       -3.6497237619
 O         9.4792073408        3.2605040341       -0.8927535073
 O         6.0853557992        3.5902063958       -1.6097104857
 C         6.1280783816        4.7042245054        1.3574244213
 C         5.0898013645        3.5125736618        1.3244819760
 C         3.5601408869        3.8687501125        1.3015750194
 C         2.8556414768        3.3293180362        2.7160991260
 C         3.8617539315        2.6453236649        3.7471759324
 O         5.4799855051        2.3674352512        1.3488097325
 O         1.6272974700        3.3640184995        2.9048313545
 C         3.3983860799        5.5366976178        1.2133394049
 C         2.8450086787        2.9836927765        0.1591197169
 C         3.2033662755        2.4052452714        5.1805846726
 C         2.3229843940        1.1272576762        4.9559424923
 C         1.7201625332        0.3273334145        6.2422641847
 C         0.5998939565        1.2131623302        6.7029569965
 C         0.6714175409        1.7482272394        8.1757939937
 C         1.0913184576       -1.0773488857        5.6537251822
 C         2.9613573067        0.1226863049        7.2445864874
 O         1.9498827061        0.8898321408        3.8241703081
 O        -0.3158868343        1.5864285501        5.9595692566
 C        -0.5934259988        2.4208951462        8.6603385838
 C        -0.7966181429        3.7652631317        8.0104691406
 C        -2.2212494522        4.3787492907        8.1280698875
 C        -3.2601631644        3.6554568544        7.2316883917
 C        -2.8228999493        3.6169395822        5.7178593685
 O         0.0604665341        4.3441435986        7.3652703338
 O        -4.2807787477        3.0117005136        7.5740483557
 C        -2.8009162082        4.5034473320        9.5518284166
 C        -2.1443897277        5.8574842947        7.5530276505
 C        -3.6081720160        2.7656959931        4.7208973009
 C        -3.0697567224        2.8326916504        3.3257175663
 C        -3.6114987834        1.7473243043        2.3537400073
 C        -2.6137862575        0.5747595700        2.1959916886
 C        -3.1201316081       -0.8254049026        1.8653702203
 C        -5.0274369906        1.1363068339        2.7274479611
 C        -3.7798799940        2.3063494929        0.8986597610
 O        -2.3011052489        3.6477525673        2.8530050515
 O        -1.4356175363        0.7695503951        2.4014317265
 C        -2.7810167589       -1.1758213041        0.3463904220
 C        -3.6972181235       -2.3429702747       -0.0651269300
 C        -4.5819124870       -2.2336804389       -1.4718701125
 C        -3.6674089281       -2.1121250055       -2.7445663899
 C        -3.1438790279       -3.3127221809       -3.4147951024
 O        -4.0114680738       -3.2449867822        0.7171389461
 O        -3.4935991250       -1.0014406661       -3.1916696803
 C        -5.4865313802       -3.4912444858       -1.4899866970
 C        -5.4176112385       -0.9531455160       -1.3077200341
 C        -3.9674537814       -3.2550862251       -4.8122164743
 C        -3.1649084853       -3.5880230964       -6.0589530319
 C        -3.8282212623       -3.6230751588       -7.4843202843
 C        -4.3628857085       -5.1326418199       -7.9674976165
 C        -3.4208573746       -5.8289455751       -8.9625758241
 C        -5.2154794185       -2.7600840054       -7.3473762901
 C        -2.9187895063       -2.9414700168       -8.4961317074
 O        -1.9384546660       -3.6905095630       -5.9926708086
 O        -5.2947763852       -5.5442170684       -7.3631671416
 C        -4.0507102509       -6.6238007352      -10.1325028881
 C        -3.0239816899       -7.8636246524      -10.2667764219
 C        -2.9397819590       -9.0174080903       -9.0761404835
 C        -1.7928201502       -8.6000720706       -8.1124614463
 C        -0.4680418692       -8.2656517048       -8.7603631044
 O        -2.3771007689       -8.0236678386      -11.2255653296
 O        -1.9368858654       -8.5453293467       -6.9198357133
 C        -4.2497512308       -9.0669196677       -8.2713302535
 C        -2.6475321196      -10.3474180412       -9.8835500551
 H         9.9207872631        3.1063640917       -3.9553435124
 H         9.8097687481        1.6207072646       -3.0647744803
 H         8.2077253704        2.5325120793       -3.6460599693
 H         7.7880369804        3.6002819211        0.8158107337
 H         8.0246121426        5.2888942946        0.4926976795
 H         9.3441244259        5.8214529531       -0.9342993095
 H         8.2909041124        6.8567140907       -1.8339194366
 H         9.7152267807        6.1236388267       -2.4616018743
 H         7.1637453771        5.9976969966       -3.8508277592
 H         7.9530468685        4.6296273948       -4.5168531684
 H         6.5447866320        4.2278340938       -3.6861244868
 H         6.5050997566        4.7130432886        2.3912333949
 H         5.5349325206        5.5494862142        1.0597301906
 H         4.0581212931        1.7048338390        3.3001322996
 H         4.7954862974        3.2702789063        3.9187488679
 H         2.3341313689        5.6864744632        1.0918079898
 H         3.7848494614        5.9174460684        0.2124856768
 H         3.8056862397        6.0943578408        2.0944039132
 H         1.7249123701        2.8790131934        0.3245539822
 H         3.1855899045        3.5599586919       -0.8014660054
 H         3.3358521824        1.9899879577        0.1134197655
 H         2.5785026472        3.2446057542        5.4101859901
 H         3.9772748288        2.1812896248        5.9201853543
 H         0.9589471784        1.0456636857        8.9781825679
 H         1.3812317859        2.5557836315        8.0859323141
 H         1.9427672715       -1.8162825158        5.7597440418
 H         0.7136843355       -0.8499091711        4.6910365621
 H         0.3038122861       -1.5264943225        6.2783296282
 H         3.5395788459       -0.6516019419        6.8012722347
 H         3.5398578495        0.9912115658        7.4283532662
 H         2.6730412768       -0.2524454037        8.2602487616
 H        -1.5447548994        1.9686195220        8.4134961601
 H        -0.5174903086        2.7122559497        9.7354399195
 H        -2.8536041077        4.6766506858        5.4481401027
 H        -1.6923685261        3.2999510170        5.5835599790
 H        -3.3013970123        3.5864208971        9.8378156462
 H        -3.6901453678        5.2165419658        9.5268743417
 H        -2.1355428331        4.9065790376       10.3005773821
 H        -1.6186106296        5.7873105744        6.5971783365
 H        -3.1031154990        6.2838855855        7.2834602681
 H        -1.6381614188        6.6737944922        8.1236057389
 H        -4.6114081373        3.2228854078        4.6407077856
 H        -3.6960323984        1.7406985445        4.9959914964
 H        -2.6486234349       -1.5530952904        2.5277168284
 H        -4.2588633706       -0.8547412288        1.8291282393
 H        -4.9227866774        0.3896956456        3.5274232351
 H        -5.3839409242        0.3737720157        2.0018263835
 H        -5.7395946870        1.9406568123        3.1635272576
 H        -4.1076345969        1.5569515567        0.1397484950
 H        -4.5427263163        3.0661219108        0.7904520807
 H        -2.7789785620        2.7503020148        0.6685130079
 H        -2.7685447192       -0.3908769816       -0.3404884031
 H        -1.7403194727       -1.7420148678        0.4565021773
 H        -2.0257283507       -3.3273435173       -3.6563335728
 H        -3.2332003719       -4.3157259041       -2.8755436455
 H        -4.9889176644       -4.4177173304       -1.4148478366
 H        -6.1112041205       -3.3775706012       -2.4314350576
 H        -6.1662951763       -3.4509125642       -0.6975792638
 H        -6.4207455296       -1.1069951565       -1.7789192120
 H        -5.6424658304       -0.5003106354       -0.2466132492
 H        -4.9047912015       -0.1133753380       -1.8919173768
 H        -4.4023589088       -2.2338765981       -4.8143099512
 H        -4.9404129045       -3.7794632380       -4.8077092280
 H        -2.5421711636       -5.2499217890       -9.4342993286
 H        -2.8134559632       -6.6155247332       -8.4345423065
 H        -5.1373154640       -1.6983886496       -7.3138375109
 H        -5.9197901947       -2.9770739286       -6.5631945446
 H        -5.7721684849       -3.1036446494       -8.2306427880
 H        -1.9359408214       -3.4047665263       -8.4399786662
 H        -3.1874236549       -3.1410258041       -9.4880793326
 H        -2.9406141659       -1.8835878533       -8.3329041503
 H        -5.0942763007       -6.8818862816       -9.8943427568
 H        -4.1108599815       -6.1989173261      -11.2020911490
 H        -0.3659057211       -8.1588453149       -9.7957122281
 H        -0.2405235058       -7.3666870219       -8.3033373295
 H         0.4074117782       -8.9556375960       -8.3381623477
 H        -5.0762327012       -8.6816174003       -8.7835612781
 H        -4.1264865037       -8.6798922066       -7.2511250260
 H        -4.5468803586      -10.0840863011       -8.0337756097
 H        -1.6021058096      -10.4080762164      -10.2047787202
 H        -2.8659459580      -11.1399674830       -9.0896517845
 H        -3.4274946902      -10.4178370505      -10.7151241648
 Na       -0.1766745667        2.7690750213        3.7881204265
