155

 C         8.2500767779        2.4138036857       -3.9476244196
 C         8.6196090294        3.3534245609       -2.8075442572
 C         8.1574825385        4.8108010930       -2.6549904190
 C         7.1270507697        4.7285104329       -1.2634823416
 C         7.1131604193        3.4503337766       -0.1880508487
 C         9.2205848786        5.7823629063       -2.2691159453
 C         7.2328208575        5.3184711371       -3.7843163971
 O         9.3225202033        2.9473536215       -1.8967142714
 O         6.4306550545        5.6997366649       -1.0122491656
 C         5.9595073439        3.3825052659        0.7613761750
 C         4.5743122172        2.7383955660        0.3054722741
 C         3.2826815578        3.7098487074        0.9003632997
 C         2.5920781593        3.0452909500        2.1651492881
 C         3.2598177465        1.9285111046        2.9467861546
 O         4.3875207804        1.5800177365        0.0013288302
 O         1.3414145060        3.1710114468        2.3757672513
 C         3.5741188854        5.2508340940        1.3448478900
 C         2.2722387064        3.8378045146       -0.2759588819
 C         2.8462305423        2.0213642452        4.4253014995
 C         2.4253046830        0.5057471971        4.8320463493
 C         2.0509980310        0.3936739098        6.3951193258
 C         1.1859900119        1.6710771846        6.8914232763
 C         1.2509844597        1.9815141764        8.3495440407
 C         1.0979246667       -0.8248770148        6.7375528874
 C         3.4319362397        0.3986942640        7.2385185199
 O         2.4311319885       -0.4660699206        4.1569676516
 O         0.3534161680        2.2933743429        6.2997941208
 C        -0.1130427560        2.4578607909        8.9456136056
 C        -0.2149745929        4.0606615991        8.6013980937
 C        -1.6510876968        4.6993459112        8.4850700542
 C        -2.5871765575        3.7566844112        7.6499299232
 C        -2.7759522177        4.0327017262        6.2258887165
 O         0.8111486697        4.7454891422        8.4794597733
 O        -2.9935704029        2.8063066047        8.2914336917
 C        -2.2723798244        4.6460262416       10.0054720423
 C        -1.4605768383        6.1385167913        7.9092511601
 C        -3.2858444692        2.7907323700        5.5023931846
 C        -2.7549066047        2.5832361937        4.0968670052
 C        -3.4722326133        1.7745691855        2.8858059029
 C        -2.5918698595        0.7046838141        2.2585923503
 C        -3.4303833130       -0.5688354654        1.3927415815
 C        -4.8921869725        1.2611233861        3.2988136361
 C        -3.7251618296        2.8395691633        1.7913540898
 O        -1.7046705282        3.1291856158        3.8147576831
 O        -1.4767298781        0.5941810606        2.7042202976
 C        -4.2819754944       -0.2468408102        0.1464947321
 C        -4.5036920229       -1.5981661873       -0.6411938113
 C        -4.9467382322       -1.6715966993       -2.1287336067
 C        -3.5154384014       -1.5008535122       -2.8270212156
 C        -2.7566524123       -2.7172454018       -3.5433170371
 O        -4.3464457840       -2.6539741030       -0.0822450067
 O        -3.1186244438       -0.3775636277       -2.8905375705
 C        -5.5965927833       -3.1358061274       -2.2397613481
 C        -5.8623315574       -0.6408049781       -2.6117080475
 C        -3.8516723807       -3.3872606065       -4.5332488844
 C        -3.4025026639       -3.9738205273       -5.8272540649
 C        -4.1798607819       -3.6698769445       -7.2430608218
 C        -4.5880040887       -5.0382868031       -7.9609912738
 C        -3.5721382430       -5.9006722361       -8.7338930652
 C        -5.5553385525       -2.8796443489       -6.9245892334
 C        -3.2829932444       -2.8521730018       -8.2159048008
 O        -2.3406380017       -4.5636745341       -5.9020238534
 O        -5.7497213280       -5.4121735552       -7.9541059068
 C        -4.3011588547       -6.8710710953       -9.7621462117
 C        -3.3697496229       -7.9876548953       -9.9622861722
 C        -3.0473284933       -9.0169613428       -8.8770955272
 C        -1.5833602627       -8.7977376584       -8.3532065131
 C        -0.4700018642       -8.2956225278       -9.2210954267
 O        -2.9748822920       -8.0810361338      -11.1462507101
 O        -1.3489282766       -9.3464128909       -7.2474000207
 C        -3.9360968342       -8.9079984578       -7.6202402945
 C        -2.9866502281      -10.4967055300       -9.4661712626
 H         8.7648155608        2.6520148137       -4.9316984382
 H         8.3295412823        1.4476923702       -3.5274317570
 H         7.1971465223        2.6460657788       -3.9369657349
 H         7.2132524161        2.5196317708       -0.7290419364
 H         8.0561392732        3.6228343115        0.3215716499
 H         9.6512071130        5.7351618971       -1.2171374274
 H         9.0465712107        6.8195607794       -2.4304865251
 H        10.1394393856        5.5857598112       -2.9390424722
 H         6.4350616720        6.0747386017       -3.4236352590
 H         7.6255795557        5.8226068145       -4.6691100436
 H         6.5635616331        4.5190441949       -4.0186038237
 H         6.4253461947        2.6951784430        1.5995902250
 H         5.7464386011        4.3049413924        1.2282779794
 H         3.0602597470        1.0096137195        2.3543018388
 H         4.4227990401        2.0845061372        2.8926050772
 H         2.7609406022        5.9030181903        1.6711588856
 H         4.0902722179        5.7292965652        0.4793481471
 H         4.2647923896        5.2206079733        2.1373228440
 H         1.4342921444        4.3794100818       -0.0434025739
 H         2.8031319166        4.4033454879       -0.9524336572
 H         2.0479483521        2.8980600435       -0.7578517883
 H         2.0748007975        2.7221139053        4.7192342110
 H         3.7782368269        2.2625822683        4.9914436610
 H         1.5418738883        1.1008484417        8.9256914923
 H         1.9669971112        2.7978262706        8.6020852511
 H         1.6985957458       -1.6646559513        6.7879241669
 H         0.3743927054       -0.9511699261        5.9032204155
 H         0.5357738749       -0.7482066891        7.6557395819
 H         4.2048130592       -0.0632034718        6.6928142454
 H         3.7838576562        1.4539882025        7.2894291201
 H         3.1432071423       -0.0380164102        8.2404023082
 H        -0.9585624858        1.8053802204        8.5708913182
 H        -0.0826563668        2.3241593418        9.9991218844
 H        -3.5924830289        4.8536455569        6.2483729239
 H        -1.8592311658        4.4473190724        5.8223963502
 H        -3.1017578540        3.9685585638        9.9977941137
 H        -2.5458823763        5.6982244660       10.1387974009
 H        -1.5876912848        4.1955197176       10.6902834621
 H        -1.7887184819        6.0904578086        6.8571651264
 H        -2.0211006367        6.9454677035        8.2863435900
 H        -0.4174475329        6.4132206640        7.8541948606
 H        -4.3837274569        2.7105204176        5.4474038976
 H        -3.0917656339        1.9681824439        6.1419401412
 H        -2.6886229839       -1.2632888652        1.2551766540
 H        -3.8254800477       -0.9157942959        2.3124312247
 H        -4.7189037305        0.7202159943        4.2259195995
 H        -5.4855142310        0.7566899569        2.5174544514
 H        -5.5859273106        2.0972549441        3.5359726414
 H        -4.3469732893        2.4340341927        0.9435598956
 H        -4.0331256782        3.8439828492        2.1053515676
 H        -2.7715009845        2.9403560114        1.2138904601
 H        -5.2865834755        0.1087624183        0.4991793265
 H        -3.8866625260        0.4582486975       -0.5281650643
 H        -2.0132269623       -2.3279228448       -4.2717021849
 H        -2.4197010781       -3.4307241081       -2.8505876844
 H        -4.8486703158       -3.8825379333       -2.2496613589
 H        -6.1009277457       -3.2137335838       -3.1054566203
 H        -6.2926642876       -3.1963187782       -1.3498559162
 H        -6.7295140089       -0.3727817031       -2.0107655273
 H        -5.4187540764        0.2888332074       -2.6964459124
 H        -6.3658445048       -0.8805764979       -3.5054086616
 H        -4.5010028371       -2.5512541162       -4.8122138856
 H        -4.4015140293       -4.2074626385       -4.0600203503
 H        -2.9882181190       -5.1908053421       -9.3236944388
 H        -2.7795313549       -6.4195722248       -8.1868152282
 H        -5.3153219831       -1.8693829231       -6.4917447887
 H        -6.2790981622       -3.4538993945       -6.3056145955
 H        -6.0533872060       -2.5015095944       -7.8288361037
 H        -2.2916801419       -3.3963099238       -8.2670189928
 H        -3.7612416008       -2.5699267624       -9.1794178407
 H        -2.9261800780       -1.9484267602       -7.6710393832
 H        -5.2375453935       -7.1581940108       -9.3269511799
 H        -4.5212994362       -6.2944880927      -10.7198073358
 H        -0.4275066868       -9.0050547754      -10.0441110245
 H        -0.8299102369       -7.2744332239       -9.6459852785
 H         0.3800972196       -8.0869171307       -8.7738665152
 H        -5.0677047086       -8.9962218854       -7.8648675568
 H        -3.8557770753       -7.8206128482       -7.3253666207
 H        -3.6335848790       -9.7133724132       -6.8688704049
 H        -2.0963632809      -10.7477881028      -10.0264427291
 H        -3.0718412230      -11.0741156985       -8.5968608019
 H        -3.8389769667      -10.5954878638      -10.0634631972
 Na        0.1269624156        1.6231487970        3.7926698924
