155

 C         7.3947256397        3.0154846785       -5.0377514201
 C         8.4591719937        3.5618709052       -4.0256921718
 C         7.9497213776        4.5328759303       -2.9944317901
 C         7.2433929268        4.0367838796       -1.6921250424
 C         5.6901875786        3.6541491518       -1.7485224966
 C         9.2407036357        5.4002923157       -2.5173083623
 C         7.0423762199        5.6085140404       -3.6519633976
 O         9.5947982081        3.1775919734       -3.8860068972
 O         7.8635812708        3.6591358145       -0.7218236600
 C         5.0973531270        4.0139507763       -0.3827255059
 C         3.7796961178        3.1494995117       -0.0583587558
 C         3.0461953487        3.1804332134        1.2950956649
 C         2.6635186701        1.8296118732        1.9937088619
 C         3.7813366422        0.7631121922        2.4480508839
 O         3.3145590443        2.5463653131       -0.9886467303
 O         1.5056460584        1.8643566624        2.4529487715
 C         3.7720611216        4.1902856118        2.2592101937
 C         1.6931228205        3.8616302970        0.7767988249
 C         4.1902209244        0.7804601020        3.8908191413
 C         2.9520887360        0.3953089223        4.8985066606
 C         3.0270067007        0.5924590060        6.4265048013
 C         1.7698438943        1.4510216597        6.8700140571
 C         1.9567237716        2.1557681678        8.1927922917
 C         2.7610694881       -0.7963935627        6.9645953244
 C         4.3790657509        1.1024195198        6.8746512051
 O         2.0570077560       -0.1495386484        4.3563509859
 O         0.7893974624        1.6717427362        6.1901991423
 C         0.7719427414        2.7979300650        8.9404291501
 C         0.2565234963        4.0973180090        8.3845711297
 C        -1.1243080994        4.5586879770        8.9286375817
 C        -2.2329142132        3.8719185629        7.9605264806
 C        -1.8188182362        3.6466626378        6.3894895870
 O         0.8991775176        4.7012673834        7.5466488273
 O        -3.2465306666        3.4543322363        8.3915620859
 C        -1.3356641994        4.0385826090       10.4046720703
 C        -1.2353972831        6.0989447886        8.8500666504
 C        -2.7827652977        2.7265067763        5.6047152785
 C        -2.6753132253        2.8156996917        4.1778455502
 C        -3.6834747241        2.0285761633        3.2532944984
 C        -2.9922670359        0.6790284303        2.7385675960
 C        -3.9685573808       -0.1593103096        1.7809773910
 C        -4.9875208443        1.6813634197        4.1915092823
 C        -4.0668536323        3.0374988744        2.1131530504
 O        -1.6975542571        3.3566694408        3.6925192196
 O        -1.8050806687        0.3336942536        2.7926338420
 C        -3.5116310488       -0.4641278956        0.3154794950
 C        -4.7938822408       -1.2465478011       -0.2034451515
 C        -5.2919629555       -1.0183252010       -1.6474072325
 C        -4.2223762826       -1.7079085229       -2.6469518879
 C        -4.5205826431       -2.8009895333       -3.7329983888
 O        -5.2712504872       -2.0837468846        0.5348991053
 O        -3.0570659652       -1.4266395938       -2.4889270529
 C        -6.6889167878       -1.6311302642       -1.7891511337
 C        -5.2749410148        0.6482680312       -1.9978912404
 C        -4.7213269446       -2.3690368430       -5.1884707860
 C        -3.7949401279       -2.9998582958       -6.2635078521
 C        -4.3129759900       -3.1651779019       -7.6720786113
 C        -4.8126430172       -4.6901877814       -7.7313065970
 C        -3.8928136604       -5.7835962696       -8.3163761435
 C        -5.5552109587       -2.3453648488       -8.1433074874
 C        -3.1606779462       -3.1356018759       -8.7532920254
 O        -2.7149608843       -3.4568343885       -5.8750118844
 O        -5.8516527983       -4.9749363746       -7.2516661906
 C        -4.1969949093       -7.1925288395       -7.9483201925
 C        -3.6677098074       -8.1774782344       -9.1207695606
 C        -2.8863539286       -9.6445466088       -8.7550658222
 C        -1.4448118392       -9.0889157972       -8.5335071391
 C        -0.3371637593       -9.4135156675       -9.5215484855
 O        -3.5268793274       -7.8368843052      -10.2256051384
 O        -1.2712772163       -8.3580997308       -7.5148771134
 C        -3.6617695736      -10.3964788581       -7.5921007459
 C        -2.9394302389      -10.6553552832       -9.9254695723
 H         6.9225936742        4.0373128362       -5.4100980383
 H         7.9319016674        2.4801973610       -5.9513534856
 H         6.7679035206        2.4117614609       -4.4414027998
 H         5.0476976767        4.1054732354       -2.5122454838
 H         5.6136530475        2.5838860227       -1.7417263131
 H        10.1506928601        4.7505682998       -2.4716139872
 H         9.1278246509        5.8834374516       -1.5646256756
 H         9.5246839849        6.0816201746       -3.3512655301
 H         6.8652410916        6.4593294059       -2.9003962775
 H         7.4507957219        5.9069174392       -4.5810883944
 H         6.0380735371        5.2608331100       -3.9090568773
 H         5.8480647997        4.0576339901        0.3988171986
 H         4.9176399566        5.1904407163       -0.4496645681
 H         3.4840322180       -0.2920520233        2.2846001887
 H         4.7235189336        0.8473151005        1.8775722715
 H         3.4223201095        4.4868116375        3.1864101824
 H         4.0999955617        5.1765403648        1.8690346210
 H         4.7292182369        3.7011606925        2.3773685098
 H         0.9744118503        4.0679697861        1.4827251293
 H         1.8882888131        4.6575812167        0.1863053337
 H         1.1687420035        3.1631418332        0.1434892399
 H         4.3422486999        1.8212921681        4.2531004498
 H         5.1278513816        0.2689078259        3.9575293275
 H         2.6017777846        1.7079660572        9.0263225833
 H         2.5423400442        2.9769514541        7.7907718578
 H         3.4536520464       -1.5083329263        6.8238293016
 H         1.8793223172       -1.2993794996        6.5882444370
 H         2.6671962261       -0.6580816763        8.0160469248
 H         4.9970882694        0.2694204645        6.7720477906
 H         4.5529305374        2.0916359562        6.4969800732
 H         4.3155508833        1.0680147397        8.0221794070
 H         0.0690500883        2.0049339528        8.9746670721
 H         0.9770095827        2.8935333472       10.0660590957
 H        -1.5874265666        4.5629712562        5.9323419473
 H        -0.7902894600        3.1742712171        6.5469722469
 H        -0.5106086928        3.7734053789       11.0355782770
 H        -2.0931675567        3.2081772968       10.1752892549
 H        -1.9917909693        4.7223876064       10.8648933253
 H        -1.4168876745        6.5275161935        7.8932640389
 H        -2.0111350302        6.3997804928        9.5133783188
 H        -0.2902906452        6.4811188138        9.2414428237
 H        -3.7426475901        2.7879474176        6.0996858217
 H        -2.4225300684        1.7358954877        5.8543029965
 H        -4.0496181485       -1.0509514224        2.3767306828
 H        -5.0243376398        0.4008573796        1.8030327051
 H        -4.6284659827        1.0401734883        5.0065773534
 H        -5.8617299936        1.0893013963        3.5876467381
 H        -5.3801226107        2.7419364866        4.5380306137
 H        -4.6240436928        2.6039368435        1.2457953163
 H        -4.7034871715        3.9051054372        2.4318199845
 H        -3.2218472645        3.6064925263        1.6852299028
 H        -3.2560482881        0.2340968400       -0.4764087557
 H        -2.7392774748       -1.2956553716        0.5418195015
 H        -3.5595521851       -3.4163640274       -3.6425690113
 H        -5.2166800694       -3.6217432623       -3.4155487209
 H        -6.5488551845       -2.6655768491       -1.9298584907
 H        -7.0860350162       -1.2014654392       -2.5985402133
 H        -7.2969684459       -1.5710936268       -0.8549387763
 H        -4.6247313419        1.1997943234       -1.2999333471
 H        -4.8939514846        0.9523939485       -2.9332387429
 H        -6.3195968562        0.8620093918       -1.8977484005
 H        -4.6199904337       -1.2953402650       -5.4148044704
 H        -5.7753358990       -2.5831146660       -5.4198216142
 H        -4.1068742366       -5.7356283457       -9.4733301775
 H        -2.8125186660       -5.6772294780       -8.1464067183
 H        -5.3406720910       -1.2795377813       -8.2344811325
 H        -6.3699782165       -2.5869591855       -7.4405191962
 H        -5.8080798350       -2.8557929498       -9.1086007929
 H        -2.2175606601       -3.6353532347       -8.3387549011
 H        -3.4941010545       -3.7145902249       -9.6063119752
 H        -2.9379694003       -2.0802471194       -9.0714771212
 H        -3.8465577957       -7.5370168593       -7.0031327715
 H        -5.2925623845       -7.4221428723       -7.9168603022
 H        -0.5562478682       -8.9660008723      -10.4046332945
 H         0.6223506317       -9.0117166516       -9.2030309252
 H        -0.4135573724      -10.5034544111       -9.6463588517
 H        -4.2154403865       -9.5379472658       -7.0977492685
 H        -2.8105149805      -10.7571434866       -6.9325745175
 H        -4.1791735661      -11.3142778365       -7.9522332631
 H        -2.7734884886      -10.1558841961      -10.8830473092
 H        -2.1998218635      -11.4742583818       -9.8788826718
 H        -3.9000595372      -11.1847743589       -9.8933698400
 Na       -0.0585746597        1.6646764400        4.0148099038
