155

 C         7.2799393051        3.0970407372       -5.3107160269
 C         8.3384470937        3.6963293994       -4.2772013211
 C         7.9760586492        4.5438451261       -3.0840154004
 C         7.2353540384        3.7410991299       -1.9285640058
 C         5.6959187245        3.8100361787       -1.8331712333
 C         9.1779291865        5.3207545944       -2.3251250710
 C         7.0603024120        5.6742168978       -3.5250322675
 O         9.4392710859        3.1870349887       -4.2286277084
 O         7.8784854774        2.9711201450       -1.2311688851
 C         4.9985108534        4.0643895123       -0.3934380823
 C         3.6751139447        3.2025856883       -0.1292165756
 C         2.9579947886        3.3649462915        1.3228727573
 C         2.5931896507        2.0128242971        1.9425005157
 C         3.7006998078        0.8543708722        2.1952956006
 O         3.3228696634        2.3622387695       -0.9159105209
 O         1.5368872615        1.8860500160        2.4252828420
 C         3.9009436435        4.0544550963        2.4060620955
 C         1.7141526058        4.2522709211        1.1306203739
 C         4.0839423684        0.7845195788        3.8065874658
 C         3.0330661517        0.2267593311        4.7177997352
 C         3.2147339573        0.6158165763        6.2692435606
 C         2.0513656263        1.4459173134        6.8472846573
 C         2.2867331030        2.1212511649        8.1955406690
 C         3.1247740069       -0.6866288024        7.1780192271
 C         4.6290967353        1.3340448058        6.4997650910
 O         1.9468382852       -0.3129796575        4.3782303408
 O         0.9958124116        1.6398111734        6.2496058825
 C         0.8950098298        2.6350203074        8.7697385306
 C         0.3957899975        4.0362554446        8.4221490434
 C        -0.9499670110        4.5288165430        9.0170611867
 C        -2.0875925937        3.9415150873        7.8010693684
 C        -1.8101301019        3.8979769696        6.3329914297
 O         0.8426291692        4.5713414828        7.4238604566
 O        -3.2118430091        3.7108188108        8.2376892826
 C        -1.5196439351        3.8823601060       10.3443954702
 C        -0.8756054613        6.0746339943        9.1306940956
 C        -2.7075126145        2.8129636307        5.6803581566
 C        -2.5867199078        2.5821291902        4.2053736293
 C        -3.8076481791        2.0429258641        3.4330706047
 C        -3.1721827100        0.6822246320        2.7210315622
 C        -4.1459171272       -0.0373762650        1.7980723057
 C        -5.0878263231        1.6716211056        4.1725426471
 C        -3.9429422289        3.1490080867        2.3613896232
 O        -1.4609106196        2.8422611679        3.7651489497
 O        -2.0060564154        0.3801240842        2.9848478138
 C        -3.6980537764       -0.9964692623        0.6182616755
 C        -4.9544305881       -1.3913279434       -0.1047280305
 C        -5.2751869218       -1.0216582328       -1.6429880618
 C        -4.2034448137       -1.6978727464       -2.6779099263
 C        -4.7016515809       -2.6946676695       -3.8430412301
 O        -5.8474611985       -1.8955610041        0.5335979607
 O        -3.0611088317       -1.2998214685       -2.6855099347
 C        -6.8096965049       -1.3220612420       -1.9183053606
 C        -5.1110626836        0.4544093783       -1.8323484536
 C        -4.8246786313       -2.1336523788       -5.3218735451
 C        -3.8484115869       -2.8562723678       -6.2551934106
 C        -4.3416121952       -3.2648005384       -7.7165713943
 C        -4.8297278376       -4.8068156416       -7.6047271707
 C        -4.0270552659       -5.8970687543       -8.3323479053
 C        -5.4149576796       -2.2656725832       -8.1668498525
 C        -3.1129365025       -2.8362575142       -8.7164791649
 O        -2.7726400082       -3.2702178258       -5.9069778478
 O        -5.8527737598       -5.1103182577       -7.0211016602
 C        -3.8455753146       -7.3162818151       -7.6778843799
 C        -3.6005583574       -8.3171541414       -8.9399427093
 C        -2.9042592882       -9.6365714269       -8.6617323464
 C        -1.4701093202       -9.0753178821       -8.3935701571
 C        -0.3762721533       -9.4935596017       -9.3888016318
 O        -3.8690413477       -7.8769046356      -10.0927020137
 O        -1.3008883337       -8.2109362218       -7.6123407612
 C        -3.5817844585      -10.4696750832       -7.4539465298
 C        -3.1337169882      -10.3855746441      -10.0161671853
 H         6.9267252955        3.7549939819       -5.9747469297
 H         7.7686935716        2.3637511581       -5.7752936684
 H         6.5667441414        2.7664534086       -4.5167941453
 H         5.2337780206        4.5814394974       -2.4438943437
 H         5.2631196143        2.8219775664       -2.0808315417
 H        10.0623287372        4.7135273899       -2.3286469492
 H         8.8234636687        5.3146825716       -1.2535036805
 H         9.5381559922        6.2611793644       -2.7094584334
 H         6.4879398497        6.1284762396       -2.7728307039
 H         7.6590388212        6.4376434678       -4.1188420965
 H         6.2596667534        5.2218169680       -4.1782957739
 H         5.6233496174        3.9582588175        0.5348428737
 H         4.7191867057        5.0679623236       -0.4479670464
 H         3.4407100944       -0.1372302302        1.8175965877
 H         4.6086511922        1.1666456970        1.7580917228
 H         3.3012349157        4.5321517248        3.2296286515
 H         4.4211351042        4.9286034117        2.1777489613
 H         4.6436955362        3.4060510162        2.9080678147
 H         0.9125702633        4.1043309224        1.8911513516
 H         1.8028342584        5.3868748499        0.9641112667
 H         1.2136828867        3.8533288599        0.2383023098
 H         4.4833556630        1.7086774749        4.1967981534
 H         4.7910897941       -0.0645924227        3.9880308090
 H         2.7062206955        1.4206366059        8.8525152096
 H         2.9306920762        3.0303310063        8.2940085007
 H         3.5959650475       -1.6304069296        6.6743123292
 H         2.1353310699       -1.0211510481        7.4820883825
 H         3.7772016295       -0.7275431864        8.1019251266
 H         5.3377686370        0.8223232583        5.8564973157
 H         4.4814088078        2.3580161938        6.3316592262
 H         4.9025276569        1.1115252110        7.5086500823
 H         0.0610216263        1.8530466539        8.6027152072
 H         1.0222808379        2.6236782376        9.8201355024
 H        -2.0718582282        4.9326951336        5.9464259336
 H        -0.7501626441        3.8142157011        6.3372715712
 H        -0.8544760404        4.3549710293       11.1102682485
 H        -1.4480614540        2.8153776314       10.4207546268
 H        -2.5051203247        4.3495440686       10.5825751150
 H        -0.1651456162        6.4537696975        8.3738926608
 H        -1.8482021039        6.5031258631        8.7563718987
 H        -0.5856417436        6.3975931592       10.1296915963
 H        -3.7002626166        2.8994753368        6.1427207091
 H        -2.2841716966        1.8817779229        6.1269026905
 H        -4.6322156951       -0.6899263751        2.6438330489
 H        -4.8500520953        0.6505145586        1.5703957787
 H        -4.9107939158        1.2378107057        5.1563067828
 H        -5.5667872896        1.0330932646        3.5615032613
 H        -5.7162147197        2.4748224948        4.1459592128
 H        -4.4496084664        2.8218798759        1.4448358031
 H        -4.5473896592        3.9046748736        2.6544770057
 H        -3.0834954713        3.7173406727        2.0857921797
 H        -2.8821495877       -0.5963513210       -0.0113296849
 H        -3.4352267765       -1.8824804975        1.1122648875
 H        -4.1851395755       -3.6455594575       -3.8785281443
 H        -5.6924993042       -3.0411548850       -3.5148102060
 H        -6.9450778752       -2.4050690982       -2.2066160347
 H        -7.1862851058       -0.6798081988       -2.8076316763
 H        -7.2723162294       -1.1078185493       -1.0032592161
 H        -4.2241578181        0.8715156134       -1.3091616958
 H        -4.7064569678        0.5426511464       -2.9155904815
 H        -6.0858380875        1.0427603335       -1.6625841745
 H        -4.7796512513       -1.0194889835       -5.4504057037
 H        -5.8742761116       -2.3099545138       -5.6883229686
 H        -4.5591575922       -6.0212727340       -9.2602880546
 H        -2.9980712600       -5.5482125177       -8.5938150224
 H        -5.4456569785       -1.3412262504       -7.5530406168
 H        -6.2860863606       -2.8703372964       -7.8374828896
 H        -5.3850894281       -2.1584155301       -9.2582357629
 H        -2.1961121604       -3.3413931254       -8.5068641267
 H        -3.5083454872       -3.2159143892       -9.6897495932
 H        -2.9493124374       -1.7595784567       -8.7802624243
 H        -3.0277558942       -7.4731955500       -6.9016583050
 H        -4.7635560647       -7.5421526649       -7.1191495334
 H        -0.4055678031       -8.7082968302      -10.2976445310
 H         0.5993081947       -9.2955454287       -8.8801620804
 H        -0.4902071150      -10.4813921887       -9.7059636259
 H        -3.9363571036       -9.7869991832       -6.7961395676
 H        -2.9073940875      -11.1651668340       -7.1336015817
 H        -4.4377345209      -10.8955892213       -7.8881184247
 H        -2.5325801630       -9.8930517416      -10.7450851668
 H        -2.8607189458      -11.4161287798      -10.0263868696
 H        -4.1011374611      -10.3437236377      -10.4599002437
 Na        0.1160323086        1.5839517514        4.0815178551
