155

 C         6.3471756057        4.3497488602       -5.8823069814
 C         7.5901844330        4.1363456628       -5.0497697845
 C         7.3320320721        3.7247321728       -3.3083114761
 C         5.9610395386        2.8322369536       -3.2878899373
 C         4.7034586726        3.3828289185       -2.6850622340
 C         8.5169437611        2.9366469595       -2.9363092408
 C         7.1830263820        5.1830467021       -2.6798463271
 O         8.7433368323        4.2457145810       -5.4945855338
 O         6.1156625427        1.6393704830       -3.5040573472
 C         4.8127641841        3.4609048470       -1.1397984738
 C         3.4867186473        3.3754461851       -0.3456498385
 C         3.4639771980        3.3876360114        1.2047174533
 C         2.7927884691        2.0510686543        1.7229485438
 C         3.2776388453        0.5267979627        1.4103934223
 O         2.4307627832        3.3213656170       -0.9607764842
 O         1.9075075780        2.2950397010        2.5952071433
 C         4.9464338220        3.5104688636        1.7985816566
 C         2.7430341166        4.6524953100        1.7265244488
 C         3.8056662737       -0.2478342114        2.6941403534
 C         2.7235301639       -0.1294590948        3.8800943779
 C         3.1023513705        0.7069951510        5.3657672241
 C         1.8415155967        1.0174820201        6.2662643082
 C         2.2444192260        1.2435935240        7.7093520179
 C         4.2852281300       -0.2775335290        5.8771999386
 C         3.8130914329        1.9662718105        5.0031977880
 O         1.7851907004       -0.8361329038        3.8350214755
 O         0.6721281978        1.1294313431        5.9812086981
 C         1.0915916626        1.9624321738        8.3851377784
 C         1.2926845577        3.4369166772        8.0841984131
 C         0.0757401333        4.3609072472        8.7149749408
 C        -1.1608784746        3.8012874863        7.8669433844
 C        -1.0501912962        3.8753343372        6.2673209773
 O         2.2533410192        3.8905497376        7.5582134459
 O        -2.0934353790        3.2661494216        8.4066348946
 C        -0.1508708592        4.0099567115       10.2374807039
 C         0.3284376252        5.9105331331        8.5357427868
 C        -2.3285356424        3.4597071059        5.5434763613
 C        -2.5206084759        1.9542260980        5.1189132539
 C        -3.5193192699        1.8237686645        3.6818844617
 C        -2.8881377332        0.8018658069        2.7035594757
 C        -4.0393055368        0.0993544732        1.8638532967
 C        -4.9430992534        1.3971492549        4.2111406451
 C        -3.6392894042        3.3118016266        2.9847722181
 O        -2.2198916551        0.9189707122        5.6842517639
 O        -1.6742970189        0.5192389344        2.5007316774
 C        -3.7475280853       -0.4809991334        0.4572853742
 C        -5.1994438524       -0.3060903517       -0.3245720132
 C        -5.1543874699       -0.1610461084       -1.7960326664
 C        -3.8966734430       -0.9073895389       -2.4585243661
 C        -4.0027633257       -2.4324913007       -2.5066825804
 O        -6.2707803902       -0.3589011470        0.3129068647
 O        -2.8454368667       -0.3514896439       -2.7937060262
 C        -6.5100410123       -0.6177450896       -2.3880096912
 C        -5.0380728493        1.3599034631       -1.9984428470
 C        -4.4124149046       -3.3205824031       -3.7657407167
 C        -3.8846027092       -2.7879216806       -5.0385700708
 C        -4.5467097991       -3.0486419408       -6.4180746448
 C        -4.8351594889       -4.5882086062       -6.5897937937
 C        -4.2234808887       -5.4544078867       -7.6874995578
 C        -5.9738635470       -2.3167388914       -6.3317420041
 C        -3.5896469613       -2.5094099990       -7.4761071549
 O        -3.1755899275       -1.8092772855       -4.9969402478
 O        -5.8869215551       -5.0258281048       -5.9422642036
 C        -4.3544983100       -6.9583162692       -7.3589835185
 C        -3.6516351075       -7.8698053547       -8.2511851687
 C        -3.2948309956       -9.3300173139       -8.0381597252
 C        -1.6023343690       -9.2267149905       -8.3578970345
 C        -1.0927238704       -9.0098844008       -9.8454362852
 O        -3.4651477378       -7.3990097570       -9.3775055312
 O        -0.9598462416       -9.0429885438       -7.4219463083
 C        -3.5222141475       -9.7411751871       -6.5322659533
 C        -4.2758483675      -10.1103229762       -8.9444368608
 H         5.6160006974        4.1014563637       -5.1507214240
 H         6.1246949404        5.3988365244       -6.0294189726
 H         6.3129347568        3.9530686560       -6.7790447974
 H         4.4490501329        4.3675529076       -3.0917056092
 H         3.8673864045        2.6742999769       -2.9937322397
 H         8.4944919664        2.0505957284       -3.5539740235
 H         8.4986234217        2.7129184050       -1.8067978754
 H         9.3438732229        3.6264669922       -3.2634950062
 H         7.3958682589        5.1294114264       -1.6066343647
 H         8.0574864170        5.8037389913       -3.1456681406
 H         6.2145768764        5.6316018774       -2.9205603142
 H         5.5506473675        2.7977710784       -0.6522952003
 H         5.1547341107        4.4895531214       -1.0399751362
 H         2.5561583275       -0.1834420421        0.9626765222
 H         4.1305636419        0.5599167938        0.7450950443
 H         5.0709480482        3.6521054344        2.9021602625
 H         5.4617154954        4.3642286111        1.4429037706
 H         5.5289496740        2.6547793191        1.5033651983
 H         2.4824633711        4.5562006891        2.7216313230
 H         3.1755167870        5.5396339227        1.3678049983
 H         1.7370238997        4.7001938592        1.2520026739
 H         4.7744679638        0.0945463151        2.9330636514
 H         3.9223515177       -1.3032665927        2.4354228552
 H         2.2898387544        0.1791563312        8.1511252431
 H         3.1925779459        1.6504363444        7.8279866762
 H         5.1638477075       -0.3108836717        5.2673379263
 H         4.0237879240       -1.3579124680        5.8898193151
 H         4.7084412350        0.1483374110        6.7893545170
 H         4.5718613730        1.9002794392        4.2718423393
 H         3.1008744931        2.6434518782        4.7866659568
 H         4.4243332161        2.4321598583        5.8325307450
 H         0.1400058544        1.7165026708        7.9162065123
 H         0.9585567990        1.8317618518        9.5015280940
 H        -0.5843949785        4.8470930214        5.8780139976
 H        -0.3153736624        3.1492193901        5.9163876617
 H        -0.4800390740        3.0361546859       10.5435714317
 H        -0.7615964566        4.8406297567       10.6517573104
 H         0.7425617950        4.0311410425       10.8292340553
 H         1.1587670444        6.0138759296        7.8299365093
 H        -0.4591315437        6.4187520294        8.0325844613
 H         0.6687149390        6.4255369279        9.3881159033
 H        -2.5218702148        4.2054463583        4.7612271435
 H        -3.1384411638        3.5828833343        6.2164900067
 H        -4.4657687180       -0.6174296899        2.5934933055
 H        -4.7627900034        0.7996906111        1.6956381063
 H        -4.9618779056        0.4232956043        4.5247071109
 H        -5.6676195993        1.5713773978        3.4525366899
 H        -5.2876259100        2.0584570641        4.8836241367
 H        -4.0029825840        3.3428263739        1.9148693686
 H        -4.3806995688        3.8046244869        3.4833001287
 H        -2.8058341448        3.9745263739        3.0098434783
 H        -3.0965165441        0.2313839536       -0.0658812082
 H        -3.3337303124       -1.4784958670        0.4944061004
 H        -2.9495643563       -2.7926258788       -2.2057897896
 H        -4.6892731801       -2.7723326284       -1.7020298175
 H        -6.6789000067       -1.6989630974       -2.1597971845
 H        -6.7105351889       -0.4808399464       -3.4347641571
 H        -7.3043862580       -0.1898013820       -1.7823886550
 H        -6.0213265829        1.7315776825       -2.1021941265
 H        -4.6876257229        1.8221556293       -1.0571614127
 H        -4.4199892761        1.3704163825       -2.9348412357
 H        -5.5562278563       -3.3257645501       -3.7770645189
 H        -3.8902848949       -4.3266654481       -3.6371835587
 H        -4.6363653341       -5.2517558254       -8.6962644586
 H        -3.1417924825       -5.0866888876       -7.7617018741
 H        -5.8737604615       -1.4403291945       -6.9887463564
 H        -6.1273567873       -2.1202141612       -5.2748939864
 H        -6.7262084505       -3.0459657714       -6.6085504407
 H        -2.5581559986       -2.7680611310       -7.3870685038
 H        -3.9385617821       -2.7747687060       -8.5164472392
 H        -3.5254855838       -1.4379508100       -7.4264119677
 H        -4.0594414083       -7.0466405458       -6.2879132862
 H        -5.4493573116       -7.3043574257       -7.3296932491
 H        -1.8008306995       -8.3446997853      -10.3517468876
 H        -0.1335171538       -8.5174404854       -9.5896960150
 H        -0.9236076549       -9.9856639029      -10.3033610474
 H        -3.2694348148       -8.9713604034       -5.8076426433
 H        -3.2016089780      -10.7209934215       -6.2310644557
 H        -4.5907359855       -9.8697929773       -6.4730664914
 H        -4.1357358926       -9.8644882671       -9.9766583259
 H        -4.2030102637      -11.2026767353       -8.8917817427
 H        -5.3303365695       -9.9851618618       -8.6677102119
 Na       -0.0009424763        0.8180566024        3.9995560170
