155

 C         4.4472599684        4.5931109192       -5.9959877311
 C         5.7481815476        4.1944187957       -5.4143208600
 C         5.9245364887        2.7643368535       -4.6224290727
 C         4.4869810724        2.2772135613       -4.3289333683
 C         3.7075205932        3.1632446031       -3.3746794773
 C         6.6896218217        1.7359592816       -5.5333505917
 C         6.8739038190        2.9290710106       -3.4221435218
 O         6.7714580029        4.7772659932       -5.5313117832
 O         3.9205109906        1.4957533333       -5.0006905823
 C         3.6317775144        2.5459405011       -1.9535698501
 C         2.8571927073        3.2675900965       -0.9303432057
 C         3.6214334916        3.0976454043        0.6611705055
 C         2.8238206159        2.1693676330        1.3871192094
 C         3.2193521119        0.7503167473        1.1673943459
 O         2.0471182605        4.1365374662       -1.0962070670
 O         1.7279422393        2.6319176877        1.7524972027
 C         5.1651699552        2.8635398304        0.4678655738
 C         3.4852236763        4.5788037443        1.2822994568
 C         3.9716542439        0.0311114047        2.2606414811
 C         2.8941181835       -0.1090446582        3.3612609955
 C         3.3779698581       -0.8896546809        4.6617526042
 C         2.6505882869       -0.2080252538        5.9448350456
 C         3.2676459593       -0.0479347505        7.3607834168
 C         2.7244104378       -2.3015846089        4.4370693853
 C         4.8012413893       -0.9038658785        4.8409633770
 O         1.7539699380        0.1591059254        3.0256793906
 O         1.7897722323        0.6183518039        5.6513603394
 C         2.3566408418        0.8746168832        8.2787522079
 C         2.1948623291        2.3122312706        7.7412967867
 C         1.5534637010        3.4190243310        8.6338540272
 C         0.0397860487        3.2806855675        8.0307357885
 C        -0.8026744756        4.3518341307        7.3769334052
 O         2.7661410707        2.6238400348        6.7298116071
 O        -0.5380587142        2.2007258065        8.1979332630
 C         1.4871509170        3.2404225277       10.1579532524
 C         2.0177506891        4.8510550260        8.3253345994
 C        -2.1042144185        3.8344906914        6.6708278877
 C        -1.9095437289        3.3065903941        5.3015061263
 C        -3.1042686421        2.5797824288        4.4191479163
 C        -2.7936455890        1.7546607745        3.1406244116
 C        -4.0242388898        1.4138144874        2.3878784200
 C        -3.9878201178        1.7870016635        5.4134832641
 C        -3.8064997933        3.9174411928        3.9589364588
 O        -0.8551988734        3.6017205674        4.7114695921
 O        -1.7346839633        1.5470280867        2.5787238810
 C        -3.9452553654        1.3664617343        0.7726148280
 C        -5.1118880033        0.5924801509        0.0315185014
 C        -5.0971577005        0.7160758788       -1.5918544357
 C        -4.0406190471       -0.5001418144       -1.9352018504
 C        -4.3463889693       -1.9092002617       -1.6658075748
 O        -5.7286646139       -0.2933144230        0.6254449061
 O        -2.9454820549       -0.0388840284       -2.1323575678
 C        -6.5788459206        0.3813798330       -2.1826202325
 C        -4.5264525865        2.0512346440       -2.0991448494
 C        -4.8962083531       -2.6881154889       -2.9343574732
 C        -4.6055173445       -2.0506201243       -4.3082612624
 C        -4.6531847780       -2.9579710233       -5.5465256645
 C        -4.4430143504       -4.4243901027       -5.4107524123
 C        -3.7708963536       -5.1912362158       -6.5626143749
 C        -6.1447708931       -2.9183310950       -6.0956225600
 C        -3.7597057855       -2.2298619289       -6.5982463190
 O        -4.3535232791       -0.8969681058       -4.4700633563
 O        -4.9173739903       -5.1609529626       -4.4433157194
 C        -3.6126409215       -6.5993973176       -6.1807073936
 C        -3.2031894937       -7.4493733946       -7.4600308933
 C        -3.7069516645       -8.9542931693       -7.6693483580
 C        -2.3608006620       -9.7925899965       -7.9686022454
 C        -1.7946017378       -9.7430817603       -9.3412403683
 O        -2.5445460294       -7.0129342049       -8.4289814201
 O        -1.7027991687      -10.1663321770       -7.0103797677
 C        -4.3293486375       -9.6172727157       -6.4067466660
 C        -4.6672444432       -8.9999475850       -8.8981512416
 H         4.1715643647        5.4699051011       -5.5121776709
 H         4.3837868436        4.5845418430       -7.0206337654
 H         3.6686865867        3.8041633725       -5.7186963773
 H         4.2270839115        4.1276680673       -3.3737712597
 H         2.6029586943        3.1685514466       -3.6387747908
 H         6.3379615603        1.6983346151       -6.5284175075
 H         6.6838212184        0.7356722228       -5.0796049906
 H         7.6521050850        2.1070100972       -5.4645433543
 H         7.2866474166        1.9316903149       -3.0943352439
 H         7.7981254908        3.3989946639       -3.9372297716
 H         6.4146189510        3.4746246565       -2.5974156602
 H         3.1919909879        1.5530854284       -2.1279356561
 H         4.7584808545        2.4622128698       -1.7210141253
 H         2.3374613124        0.2188932221        0.9699999996
 H         3.7421525808        0.6685401712        0.2213626096
 H         5.5297968089        2.7507537312        1.5320879502
 H         5.7131860839        3.6500216103        0.0094612089
 H         5.2661355369        1.8196277208        0.1516612671
 H         3.8341804435        4.5902055597        2.2919512631
 H         3.7407812749        5.3056724021        0.5074249458
 H         2.4112735777        4.8018832768        1.4460858027
 H         4.8581613859        0.5039321102        2.6667936696
 H         4.3246407429       -0.8641627462        1.8050321706
 H         3.4112986978       -1.1014662104        7.7362514364
 H         4.1432756284        0.5014877906        7.2800047598
 H         3.0082115022       -2.5707622651        3.4792740816
 H         1.6717849646       -2.0701746266        4.3297449087
 H         3.0725702926       -3.1221349322        5.0279368973
 H         5.3832905747       -1.2764613187        4.0766174626
 H         5.2223161269        0.0029371569        5.1534942318
 H         5.0827554342       -1.5822475683        5.5980801943
 H         1.3993990068        0.4308579861        8.4534307386
 H         2.8772892241        0.9037515394        9.2585004507
 H        -1.1449704259        5.0641671853        8.1329291757
 H        -0.2373291242        4.9467284111        6.6289511490
 H         2.4775950517        3.1380631372       10.4959259992
 H         0.6468641046        2.5844634677       10.5977209315
 H         1.3019158426        4.2020554903       10.5955211707
 H         1.4621725635        5.3360903916        7.5244699016
 H         2.0101581599        5.5169689273        9.2411475589
 H         3.0646679875        4.7385025982        8.0393293474
 H        -2.9516487803        4.4680183116        6.6447771964
 H        -2.2956171349        2.8931896507        7.2751854523
 H        -4.5068390161        0.3934135153        2.5864154593
 H        -4.8849999132        1.9679671884        2.7403825931
 H        -3.5089693625        1.2848924148        6.1314644623
 H        -4.7259910925        1.1633877207        4.8703294210
 H        -4.5566702588        2.4467668130        5.8862223121
 H        -4.7762235080        3.5172235602        3.7497898083
 H        -3.8888785744        4.7267471546        4.7666361016
 H        -3.3670604406        4.2686000651        3.0853029808
 H        -3.8480062066        2.3174109840        0.2130641214
 H        -3.0660876911        0.8700710675        0.3691660949
 H        -3.4240770487       -2.3900142999       -1.3967024260
 H        -5.1387711857       -1.9753004690       -0.9330664017
 H        -7.0798090058       -0.4561123545       -1.9135833789
 H        -6.6918124103        0.3998702941       -3.2411220576
 H        -7.2713193181        1.1923470946       -1.8363943815
 H        -5.2256517509        2.7920644108       -1.8167266302
 H        -3.7357713786        2.1903702073       -1.4509247733
 H        -4.2459657838        1.9359376682       -3.1682719963
 H        -5.9720001160       -2.6084557275       -2.7275942299
 H        -4.5063269726       -3.7438502865       -2.9436067415
 H        -4.5157669935       -4.9802797071       -7.3975384431
 H        -2.8569807382       -4.8495114221       -7.0065583520
 H        -6.9156295346       -3.2846659020       -5.3666725102
 H        -6.0841963543       -3.5257610553       -7.0190435838
 H        -6.4173137660       -1.9331492554       -6.5317185145
 H        -2.7025654356       -2.2457381554       -6.2041819892
 H        -3.8188354540       -2.8619802744       -7.5527884420
 H        -3.9551049967       -1.1861204866       -6.9020444565
 H        -2.8406609416       -6.6566030066       -5.4579422121
 H        -4.4320209186       -7.0786558354       -5.6614147744
 H        -0.9013775071      -10.4479659970       -9.4555845115
 H        -2.6738015978      -10.1311308238       -9.9521385631
 H        -1.4977066503       -8.7549950338       -9.7485108084
 H        -4.4491321111      -10.6977518211       -6.6226188225
 H        -5.3301829300       -9.1642372712       -6.2465544304
 H        -3.6121076266       -9.3856636004       -5.5687037144
 H        -4.1613680982       -8.4374633470       -9.6603526516
 H        -4.6969277722      -10.1023851061       -9.0367407618
 H        -5.6475064562       -8.5697510365       -8.8553047946
 Na        0.4571735604        2.0621099814        3.7741139682
