155

 C         5.0291377492        4.3673161860       -7.3997119980
 C         5.4215866777        4.0853627130       -5.9493637561
 C         5.2145801655        2.6167693366       -5.4838133497
 C         3.9807146723        2.2932493274       -4.5474499379
 C         3.6336954053        3.3180129313       -3.4859813136
 C         5.2656512159        1.5916004857       -6.6345790289
 C         6.5180860323        2.4013574954       -4.6021870613
 O         5.7246801088        4.9924430318       -5.1596551102
 O         3.3572317052        1.3023278433       -4.8538843281
 C         3.4218914423        2.6676474080       -2.0594530158
 C         2.9691658520        3.6325263568       -1.0559723191
 C         3.6865174908        3.6324516572        0.4495303792
 C         3.0545750026        2.5916544858        1.3844160140
 C         2.9998436227        1.0906544587        0.9158761051
 O         1.9655144645        4.2750164671       -1.1920796483
 O         2.4858475032        2.9288847357        2.4060619827
 C         5.2169844668        3.2698820994        0.3884611160
 C         3.5435366460        5.0622226841        0.8972294913
 C         3.2398579704        0.1817586039        2.1706509999
 C         2.0747075459       -0.7415344897        2.9146698560
 C         2.4980393946       -1.2522527951        4.4083381193
 C         2.3568342171       -0.0113486153        5.4134762588
 C         3.3035021655        0.1807923386        6.6115009580
 C         1.4528919667       -2.4274654817        4.6912826008
 C         3.9355895827       -1.9506304495        4.3491424936
 O         1.1564187574       -1.2686870437        2.3191540672
 O         1.4560878387        0.8139665449        5.2438471996
 C         2.8351201764        0.7839554642        7.9901138779
 C         2.7717981532        2.3263481353        7.8879974702
 C         1.8028815666        3.1167251556        8.7689432871
 C         0.3543947349        3.0786796032        8.1738588029
 C         0.0640063846        4.1755028057        7.2441137383
 O         3.4987854755        2.8244559048        7.0557679539
 O        -0.3818124691        2.1348741012        8.3441809400
 C         1.7994356773        2.5175863349       10.1474320597
 C         2.4334707886        4.5158055734        8.7341425187
 C        -1.4369525429        4.1358910730        6.7911989167
 C        -1.4719525574        3.2969995537        5.3825676128
 C        -2.8310435472        2.8654260300        4.6490754635
 C        -2.5882395502        1.7784260968        3.5639929001
 C        -3.8735927899        1.4757265603        2.6978977909
 C        -3.8151652579        2.2435799658        5.6405771763
 C        -3.3145177725        4.2143648132        3.9182875577
 O        -0.4398892380        3.2647066399        4.7410720633
 O        -1.4640631918        1.4232055475        3.2185805827
 C        -3.5260250884        1.7470319462        1.2758357921
 C        -4.6289526884        0.7123195658        0.3865359064
 C        -4.6503292749        0.7316971219       -1.2124799009
 C        -3.9961697582       -0.6597531303       -1.5774969926
 C        -4.7853486565       -1.9686761001       -1.5616462065
 O        -5.3917738386       -0.0302125091        0.9699134030
 O        -2.7737194839       -0.6899521400       -1.7656233680
 C        -6.1726688059        0.8721741049       -1.4807120200
 C        -3.8435233074        2.0147681849       -1.7845079167
 C        -5.6183539419       -2.3240941481       -2.8577544234
 C        -5.0471199806       -1.7758174956       -4.1800482155
 C        -4.6156836981       -2.6316615903       -5.3494399609
 C        -4.0285922643       -4.1737340321       -5.1471471774
 C        -3.7811877153       -5.0563176554       -6.3853936795
 C        -5.8449859112       -2.8979476139       -6.3681056371
 C        -3.5168828202       -1.8560674097       -6.2006350947
 O        -5.1322166050       -0.5800046489       -4.3439299274
 O        -3.8712192634       -4.5407832457       -3.9700237634
 C        -4.1414839034       -6.5532162053       -6.1894146331
 C        -3.4562243794       -7.4231247749       -7.3457349010
 C        -3.8625468479       -8.9854166010       -7.4831262923
 C        -2.3795243085       -9.8545739721       -7.7367607019
 C        -1.3949286092       -9.4731381293       -8.8930030916
 O        -2.5600902310       -6.9206532177       -8.0830280392
 O        -2.2819410356      -10.8267593288       -7.0821575468
 C        -4.4277054433       -9.6718061293       -6.1170270452
 C        -4.6182218868       -9.2565192038       -8.8363586664
 H         5.1882171914        5.3832642237       -7.5753738871
 H         5.6362570364        3.8210268493       -8.0302624007
 H         4.0197592098        3.9858487851       -7.6865549235
 H         4.4436457261        4.1161446862       -3.2917692255
 H         2.7174684833        3.8126263782       -3.7443254515
 H         4.6614927508        1.8719812339       -7.4088470939
 H         4.8071956710        0.6683370784       -6.2162519172
 H         6.2397719923        1.4096883519       -7.0611011031
 H         6.5279792064        1.4444936787       -4.0169564883
 H         7.4520394454        2.5244978818       -5.2093726599
 H         6.4844134015        3.1418812685       -3.7805673238
 H         2.6262259588        1.9810220721       -2.2753445128
 H         4.3773110030        2.3586658450       -1.7810373745
 H         2.1048368710        0.9878280196        0.3446444389
 H         3.8372072874        0.9620320127        0.2269553585
 H         5.5753385285        3.5005663730        1.4133837937
 H         5.6570861603        3.9602487623       -0.3548294503
 H         5.5069481712        2.3160742254        0.0910358008
 H         3.9729547630        5.1296979813        1.8861685066
 H         4.0854081521        5.7102675259        0.3094915535
 H         2.4914979925        5.2804907999        0.9911969353
 H         3.7877043233        0.7795161116        2.9124822448
 H         3.8770808351       -0.6103139751        1.8006504035
 H         3.6478345377       -0.8410531746        6.8649906325
 H         4.2241921291        0.7635156951        6.3121942994
 H         2.0537608783       -3.2308410049        4.8494602548
 H         0.7083841308       -2.5553608084        3.9277860486
 H         0.9610968989       -2.1380652855        5.5940275439
 H         4.3116004535       -2.1552282086        3.3732353445
 H         4.7400524891       -1.1747937135        4.5462318668
 H         4.0484265263       -2.6952012862        5.1428673549
 H         1.8137215471        0.4206799739        8.2450277538
 H         3.6132420087        0.4846989542        8.6666655558
 H         0.3040854240        5.1901784554        7.5636665832
 H         0.6614796494        3.9998530600        6.3198516089
 H         2.8396959209        2.2414788953       10.3837452616
 H         1.3268521902        1.5379663463        9.9486560542
 H         1.3719550851        3.1889498616       10.8516627880
 H         3.1613678262        4.6387598292        7.8809464514
 H         1.7376806107        5.3232018290        8.9126455787
 H         3.0819942658        4.6027483287        9.6695844726
 H        -1.9121453972        5.1225632036        6.7504667326
 H        -1.9991421358        3.5104602393        7.4155307428
 H        -4.0691315600        0.4424418443        2.8491781380
 H        -4.7887165018        2.0085068287        2.9668640799
 H        -3.4598627991        1.5216557880        6.3098002752
 H        -4.5768583245        1.6210729367        5.0180354266
 H        -4.3539044554        3.0250720997        6.0983726033
 H        -4.4247944146        4.2934292745        3.8830260022
 H        -2.8096424291        5.0041892075        4.4348330053
 H        -2.8891169374        4.1321106314        2.9973170175
 H        -3.5225579850        2.7131773271        0.9750054328
 H        -2.5772884609        1.2090049646        1.1551851987
 H        -4.0252608215       -2.8159108105       -1.4761489746
 H        -5.3756077540       -2.2023484662       -0.6329585469
 H        -6.7893484680        0.1929906253       -0.8696084566
 H        -6.5773483113        0.9433604540       -2.4134531443
 H        -6.4348836881        1.9028389506       -1.1639234354
 H        -4.4620515694        2.8228265750       -1.7521946097
 H        -3.0135455464        2.1495024188       -1.0861033905
 H        -3.3761801561        1.9412507907       -2.7774660120
 H        -6.6300709625       -1.8128449941       -2.8779934733
 H        -5.8165337435       -3.4412217616       -2.8577151591
 H        -4.3464631138       -4.5386263873       -7.1455879103
 H        -2.7234173550       -4.9034282871       -6.7798509975
 H        -6.4638502452       -3.7773311737       -6.0936920819
 H        -5.4677194676       -3.1232013413       -7.4034848957
 H        -6.5468292830       -2.0492864540       -6.4033809246
 H        -2.6243418601       -2.4491569318       -5.9888157453
 H        -3.6388853276       -1.8670740315       -7.3237551047
 H        -3.3157365004       -0.8329254353       -5.8236190509
 H        -3.9541443894       -6.8389501230       -5.1175047104
 H        -5.2224192971       -6.6754653296       -6.3973967278
 H        -1.2765914227       -8.4480061619       -8.8022979532
 H        -0.5164440671       -9.9541807646       -8.7628789795
 H        -1.8341916839       -9.8766608720       -9.8391715901
 H        -5.0453809304      -10.6004215847       -6.3408596258
 H        -4.9426071198       -8.8259490880       -5.5882826940
 H        -3.5601438477      -10.1662140890       -5.6154235170
 H        -5.7085234332       -9.0418811630       -8.6881297826
 H        -4.2376941399       -8.4630588719       -9.5105431716
 H        -4.3904282908      -10.3150053363       -9.1563266816
 Na        0.7846049949        1.6084170278        3.3308007241
