155

 C         5.2778800130        4.4578937395       -7.5681986579
 C         5.1965384028        3.9776024461       -6.1785367897
 C         5.1640806499        2.4759870098       -5.6940618505
 C         3.9429183044        2.3877161437       -4.6133760053
 C         3.8410017976        3.3842386746       -3.4685417804
 C         4.9162745331        1.4633495975       -6.9892499194
 C         6.5477335952        2.0804610415       -5.0361006298
 O         4.9045544896        4.8156787075       -5.3503151055
 O         3.0293661853        1.5645765019       -4.7501665531
 C         3.3721926149        2.7029404258       -2.1418548840
 C         2.9710673632        3.6108565220       -1.0149638130
 C         3.6445975928        3.6200301633        0.4023388099
 C         2.9786283019        2.5607892731        1.3769076880
 C         2.6385648979        1.1203839101        1.1102809000
 O         2.0361906257        4.3060214769       -1.2976088885
 O         2.6390821315        2.9512851507        2.4923729173
 C         5.1992000938        3.3784820600        0.2133710941
 C         3.3576309160        5.0701297148        1.0304328628
 C         3.1813599281        0.3098236454        2.2413464245
 C         2.2208098055       -0.7420905988        2.7377787876
 C         2.3170707112       -1.3801027214        4.2681987086
 C         2.3250713113       -0.1589145906        5.2555398799
 C         3.3362292827       -0.1400995688        6.3839527912
 C         0.9485436208       -2.1479584210        4.7518540478
 C         3.6375734287       -2.1759706016        4.3494907415
 O         1.2504230103       -0.9992604862        2.0807920157
 O         1.6145872094        0.8144796192        5.2825555620
 C         2.7489076257        0.5948038021        7.6215777113
 C         3.0209641241        2.1797165611        7.8385172221
 C         2.0345805734        3.0395623817        8.8117442315
 C         0.6772132264        3.1047760853        8.0977226038
 C         0.1852735864        4.3316436480        7.2737746369
 O         3.7433779731        2.7918311113        7.1335348211
 O        -0.1130068726        2.2578849106        8.3988772223
 C         1.7883817335        2.3374654192       10.2316995890
 C         2.5622788920        4.4140392324        9.1483709098
 C        -1.1842791037        3.9201831836        6.6277609042
 C        -1.1503947161        3.2453731995        5.2494069104
 C        -2.6548305513        2.9022921782        4.6052814879
 C        -2.5804121397        1.7697069512        3.5659638475
 C        -3.8351637990        1.5154605134        2.7354545754
 C        -3.5885560073        2.5550287551        5.7909608879
 C        -3.1504856609        4.4835375524        4.1093766058
 O        -0.1383125299        3.0630420627        4.6732985493
 O        -1.5677501548        1.1964510114        3.2716442913
 C        -3.4025404888        1.3242839991        1.2574012689
 C        -4.6183683758        0.5577624816        0.5148193434
 C        -4.5745927980        0.6661461869       -1.1742007361
 C        -4.0155675341       -0.6943646883       -1.5641244844
 C        -5.0376921462       -1.8449212223       -1.5992154693
 O        -5.2519216668       -0.2645586749        1.1047620242
 O        -2.8199158187       -0.8472056671       -1.6759293943
 C        -6.1204198913        0.8532242560       -1.8141252591
 C        -3.7000430319        1.8371031936       -1.6546698687
 C        -5.5743378969       -2.4181316924       -2.8845340348
 C        -4.9889629574       -1.7812716744       -4.1322975352
 C        -4.5668036726       -2.6144655976       -5.4848834741
 C        -3.9553846432       -4.0074141159       -5.0491514857
 C        -3.5725128323       -5.1606440556       -6.1433014149
 C        -5.8816556891       -2.7752422343       -6.2836737016
 C        -3.4702868414       -1.7530697097       -6.2744730955
 O        -4.9640007900       -0.5538647382       -4.2011078982
 O        -3.8244901197       -4.3970425106       -3.9439140264
 C        -4.2633717108       -6.5035044183       -6.0053039858
 C        -3.4489526655       -7.3166315021       -7.0851974082
 C        -3.7030147539       -8.8715399244       -7.1913657028
 C        -2.4339137467       -9.7551914146       -7.5933401567
 C        -1.4204023575       -9.1478794087       -8.7480005891
 O        -2.7119961296       -6.7216645841       -7.7856225965
 O        -2.4213081991      -10.8704131955       -7.1299175046
 C        -4.7387959347       -9.4285584990       -6.0376764588
 C        -4.5587967404       -9.1284671907       -8.6018862239
 H         5.2021928422        5.6000665238       -7.5111199394
 H         6.1842893219        4.2076243483       -8.3212778795
 H         4.3416028318        4.0256120127       -7.9747017550
 H         4.7732031306        3.7737392817       -3.2601181527
 H         3.1981653937        4.2389949015       -3.6911188353
 H         3.9707625413        1.7664345125       -7.6236217775
 H         4.8460594983        0.4189765713       -6.6973492078
 H         5.7943626142        1.5804792581       -7.7116872766
 H         6.4934230570        1.0418846789       -4.8805081556
 H         7.3258978571        2.2956516961       -5.7242767821
 H         6.8739200884        2.5552671748       -4.0889204930
 H         2.4704779379        2.3187327437       -2.6538363326
 H         4.2044750722        1.9776927452       -1.9431027957
 H         1.4879356332        1.0320295400        1.0487177567
 H         3.0173450889        0.7591975097        0.1395271777
 H         5.6041169593        3.7578062473        1.1185725892
 H         5.7315080696        3.6971845797       -0.6700335711
 H         5.2759081883        2.2588123073        0.0570768117
 H         4.1604095236        5.3172760818        1.7936488035
 H         3.5160929678        5.9347400049        0.3246746925
 H         2.2887122293        4.9910895367        1.2874142983
 H         3.3201396707        1.0004851595        3.1118314074
 H         4.1612660659       -0.1426703271        1.8763544329
 H         3.6704203151       -1.1490858922        6.6126179524
 H         4.2435861810        0.4177291164        6.1125504738
 H         1.3656900112       -3.0974265513        5.2801358156
 H         0.4699567628       -2.4188940976        3.7935632722
 H         0.2832112302       -1.4213934852        5.2847864110
 H         3.6087831920       -3.1722401633        3.7511162419
 H         4.4597839827       -1.7808578228        3.7785169888
 H         3.9178597800       -2.3867081794        5.4161162014
 H         1.6706219481        0.5810500408        7.6726000617
 H         3.2547236186        0.2537360098        8.5835192891
 H        -0.1068840480        5.1739588792        7.9351972720
 H         0.9667963021        4.6755105620        6.5916220132
 H         2.7779622046        1.8968037677       10.4797419564
 H         1.0718814886        1.5714349916       10.2937925237
 H         1.5430870936        3.3137732414       10.7330285722
 H         2.9752090816        4.9318086818        8.3030579533
 H         1.8271550078        4.9595173462        9.7753735429
 H         3.4025011405        4.2521485948        9.7786968562
 H        -1.8565059500        4.7703203688        6.4224980178
 H        -1.7212636241        3.2889785058        7.4154304066
 H        -4.3138978334        0.4871885236        2.9638041504
 H        -4.5026983954        2.3747417600        2.8927102742
 H        -3.6621437827        1.4168218570        5.8326754722
 H        -4.6352578303        2.8777264544        5.6330210025
 H        -3.3058301369        3.0563004915        6.7664850240
 H        -3.8896975854        4.5718519089        4.8791683845
 H        -2.4075243207        5.2334585644        4.3450767009
 H        -3.5430133989        4.4758139899        2.9876246786
 H        -3.0835942907        2.1688567376        0.5290172689
 H        -2.7325196126        0.4405528292        1.2493004840
 H        -4.6389782884       -2.5923529436       -0.9423842165
 H        -5.9262498394       -1.6810768030       -1.0199504004
 H        -6.9585005381        0.1403765140       -1.5901514298
 H        -6.0506876288        1.0119932249       -2.9560758729
 H        -6.5827621953        1.8255925781       -1.7030331669
 H        -4.2273247970        2.7938189127       -1.1773788012
 H        -2.6002291556        1.7176684358       -1.4936712384
 H        -3.8327087586        2.0331691392       -2.7495114435
 H        -6.6404045554       -2.3797505587       -2.8886563146
 H        -5.3472351098       -3.4340772898       -2.9762148454
 H        -3.8710552420       -4.8774607211       -7.1692446482
 H        -2.5137833645       -5.3403887954       -6.1883835312
 H        -6.5004949424       -3.4621106838       -5.7563979791
 H        -5.6679610257       -3.2870562012       -7.1786170880
 H        -6.4306880717       -1.8875858067       -6.5273584424
 H        -2.4940684219       -1.7292611089       -5.8295912003
 H        -3.3561140084       -2.2065533096       -7.1888592550
 H        -3.8501227451       -0.7749660412       -6.4070332715
 H        -4.3153878168       -7.0457308904       -5.0555950401
 H        -5.2898789822       -6.4310836703       -6.4287956138
 H        -1.8189029307       -8.1108338065       -8.8722963120
 H        -0.3214043624       -9.1147870680       -8.5374162509
 H        -1.5667931633       -9.8175909443       -9.6060193818
 H        -4.3837920610      -10.4206323854       -5.9775680821
 H        -5.7667011818       -9.3566595376       -6.3629686015
 H        -4.5311966348       -9.0244759748       -5.0673597627
 H        -5.4699451089       -8.4802147853       -8.5682924422
 H        -4.1021507696       -8.9386348175       -9.5853756488
 H        -4.7487774130      -10.1612321483       -8.3542507549
 Na        0.6254280226        1.7265082910        3.2310861766
