155

 C         5.5337395942        4.4285811616       -7.1673955291
 C         4.2160354880        3.8178026101       -6.6937089494
 C         4.1394478865        2.3132484510       -6.3251763425
 C         3.3669591981        2.3586158853       -5.0340292445
 C         4.0208362647        2.9705875069       -3.5801862776
 C         3.2792064915        1.5697724547       -7.4647150512
 C         5.4780177746        1.6498023201       -6.2205261130
 O         3.3676277295        4.5663416529       -6.2604416031
 O         2.1600177215        2.2568472336       -4.8980646643
 C         3.1936114247        2.3588766712       -2.4713002485
 C         2.9359272996        3.4986214639       -1.5208716030
 C         3.6940108351        3.4055598678       -0.0322628222
 C         2.8891016501        2.1145973468        0.5883603598
 C         3.6525004891        0.7735327966        0.7692181094
 O         2.2411851645        4.4814770261       -1.7049736713
 O         1.7964531666        2.3539534236        1.1201386913
 C         5.2450600869        3.2234920201       -0.1074644446
 C         3.3818120706        4.7218956565        0.8930493509
 C         3.5800354992        0.2062885953        2.2006248332
 C         2.2559593278       -0.3154169957        2.5186205128
 C         1.9524323926       -1.1110329445        3.9243865304
 C         2.4528378330       -0.1853304311        5.1452523759
 C         2.8855024366       -0.9640572843        6.4126004184
 C         0.4412620954       -1.3596404483        4.3845991279
 C         2.7414250831       -2.4949623861        3.8314033948
 O         1.3151639723        0.0609792173        1.8055911069
 O         2.2380961895        1.0151475678        5.2346392278
 C         2.6097481372       -0.0967084465        7.6136724429
 C         3.4046763857        1.2296898136        7.6718904721
 C         2.6442838889        2.3297094887        8.6406563376
 C         1.1583498137        2.4376283232        8.1442422086
 C         0.8765120206        3.6513160961        7.0645457820
 O         4.4196310383        1.5250476453        7.0728223418
 O         0.3392768699        1.6219658103        8.4992797322
 C         2.6948236018        1.8169000986       10.1792229963
 C         3.3746028738        3.6616772613        8.5935270175
 C        -0.6838035598        3.6753607067        6.8306588087
 C        -1.0052363807        3.6065215088        5.2907542635
 C        -2.4161581719        3.4313098930        4.6497154946
 C        -2.3340162244        2.0588833098        3.7300052158
 C        -3.4634810988        1.6542213022        2.8156620531
 C        -3.6159800036        3.1864807688        5.5665180260
 C        -2.6555245407        4.6286005664        3.7775713834
 O        -0.0901351114        3.9149246269        4.4818021297
 O        -1.4456304028        1.3018171598        4.1490179824
 C        -3.1054498310        0.7614933173        1.6914557424
 C        -4.5277303937        0.6436583944        0.9204657867
 C        -4.4708372517        0.5407917457       -0.5687695533
 C        -4.1713161329       -1.0574031514       -0.8483345533
 C        -5.0993531221       -1.9989174556       -1.5345824767
 O        -5.5453087225        0.6232484673        1.6366739102
 O        -3.1098671723       -1.3948063623       -0.2917653876
 C        -5.7667355748        1.0118628094       -1.2242518512
 C        -3.2581104228        1.1518891357       -1.3826035071
 C        -5.7462210670       -1.8218472764       -2.9943188529
 C        -4.7774668253       -1.3999807795       -4.1290751735
 C        -4.6225525501       -2.4125722406       -5.3630706949
 C        -3.8255600868       -3.6776330524       -4.8886277913
 C        -2.8903906816       -4.6570419432       -5.6417778148
 C        -6.0426924164       -2.8040254561       -5.8197409144
 C        -4.0431715159       -1.5648031090       -6.5698431347
 O        -4.1913949123       -0.3595958016       -4.1836930078
 O        -3.8114084349       -3.8940646766       -3.6569448884
 C        -3.2763715360       -6.1507570761       -5.4575321287
 C        -3.3346528912       -6.9077159769       -6.7747509937
 C        -4.0153742361       -8.4200225056       -6.9910510693
 C        -2.9171332290       -9.6582403020       -7.0779320179
 C        -1.5609860643       -9.4938480452       -7.8575128096
 O        -2.7397405433       -6.6074232456       -7.7824343283
 O        -2.9102712615      -10.4741026133       -6.1858407518
 C        -4.7985917419       -8.6640574874       -5.6388497908
 C        -4.9710398829       -8.2627913734       -8.2072270457
 H         5.3878168058        5.4262628081       -7.5220036299
 H         6.1579545224        4.5080696460       -6.3595553295
 H         6.1278190707        4.0293184622       -8.0257407719
 H         5.0672381253        2.8157681160       -3.4352727618
 H         3.8469560154        3.9736133312       -3.8407564791
 H         2.2742184511        1.7774296392       -7.3764991140
 H         3.2767826260        0.4826086720       -7.3720694696
 H         3.6233216549        1.7966300508       -8.4838026531
 H         5.4840141229        0.5290284968       -6.3057812999
 H         6.0886290687        1.8675212401       -7.1200115074
 H         6.2108082324        1.8321815162       -5.3842834020
 H         2.3366945264        1.8059253211       -2.8251053040
 H         3.7161935789        1.5582703189       -1.9669333132
 H         3.2093867156       -0.0030169771        0.0955115876
 H         4.6378143236        0.8333036547        0.4809566020
 H         5.7549503545        3.0638948945        0.7801330379
 H         5.5281824385        4.1742464563       -0.5536628079
 H         5.5760660266        2.3639657465       -0.6226754579
 H         4.1455279703        4.7691485927        1.6042259145
 H         3.3926332189        5.5226398852        0.2231548097
 H         2.4179277603        4.7706808490        1.3951266450
 H         3.8347489773        1.0236995486        2.8524674725
 H         4.3693981045       -0.5778519408        2.4661754279
 H         2.3630377575       -1.8687288547        6.5471910882
 H         3.9165380873       -1.4659212091        6.3456949310
 H         0.6205468767       -2.2409269241        4.8418983798
 H        -0.0414146878       -1.5666669277        3.4811296515
 H        -0.0259858005       -0.7414220413        5.1120003190
 H         2.3071773237       -3.0932451847        2.9875279295
 H         3.8353955414       -2.2440697442        3.7994672490
 H         2.5215611976       -3.0996379559        4.7595736803
 H         1.6328692309        0.3467558461        7.5033746358
 H         2.5994741635       -0.6323445704        8.6032554880
 H         1.1351617755        4.4742320716        7.7713275140
 H         1.5521880886        3.6170219373        6.2499408012
 H         3.6737355154        2.0874335317       10.5790629235
 H         2.3238273915        0.8102232400       10.1746318602
 H         2.0724638512        2.4723515676       10.7808545306
 H         3.5392454562        4.1293631250        7.6125685484
 H         2.8031348507        4.4026720288        9.1255271443
 H         4.2675415379        3.5620849274        9.2411057432
 H        -1.0923738931        4.5676355743        7.2392060328
 H        -1.2720052854        2.9450773195        7.3814591850
 H        -4.2139132468        1.0637930903        3.3030271549
 H        -3.7217239983        2.5938166190        2.4541911311
 H        -3.3941650788        2.3057528352        6.3348693632
 H        -4.4084272114        2.9114212881        4.8313443337
 H        -3.7608345729        4.0392967521        6.3550237723
 H        -3.3661923660        5.3226093026        4.4034814675
 H        -1.6899591009        5.1450000045        3.4730802904
 H        -3.2842440420        4.3896652599        2.9863223731
 H        -2.3215190861        1.1040194171        1.0325862753
 H        -2.7485758372       -0.3039975740        2.0730888760
 H        -4.5453494972       -3.0300914624       -1.4874469851
 H        -6.0800032216       -1.9561730769       -0.9382015501
 H        -6.7444326722        0.6007684389       -0.8706243148
 H        -5.8052223503        0.6111231205       -2.2127591985
 H        -5.8508924315        2.1131718271       -1.1284264185
 H        -3.0139931664        2.1225272173       -1.1508334286
 H        -2.3383759530        0.5681674520       -1.2129120062
 H        -3.4982477350        1.0995576197       -2.4524286417
 H        -6.4364800705       -0.9232144407       -2.7664556282
 H        -6.3515796988       -2.7032570441       -3.2267684474
 H        -2.8486722249       -4.4957308757       -6.7164927308
 H        -1.9352977733       -4.4533432597       -5.1273769064
 H        -6.2753916167       -3.6981663330       -5.2219200485
 H        -6.0631624287       -3.1568676949       -6.8679849608
 H        -6.9032868668       -2.1287576451       -5.6303512896
 H        -3.0254963632       -1.1887672693       -6.2997108678
 H        -3.9409345343       -2.1502321241       -7.5193510977
 H        -4.7469327728       -0.7018981055       -6.8153809846
 H        -2.5600152507       -6.6711821156       -4.7725996484
 H        -4.2288350242       -6.1858525055       -4.9181059223
 H        -0.9264765134      -10.2460319320       -7.5439398484
 H        -1.7318161868       -9.5563293764       -8.9208180199
 H        -1.0871544009       -8.5540817085       -7.5937645648
 H        -4.2580153638       -9.0356064118       -4.7412763804
 H        -5.3709275703       -9.6368897869       -5.8258259027
 H        -5.6162597352       -7.9004799484       -5.5260217838
 H        -5.7326976955       -7.5212993883       -8.0423840436
 H        -4.3162714033       -8.0868454704       -9.0328354119
 H        -5.4871269979       -9.1986866548       -8.3337129073
 Na        0.9385221004        2.2596783110        3.3524774510
