232

 C       -12.9023339844      -17.7643381047       -4.4743837679
 C       -13.8591952827      -16.5822214507       -4.7645870513
 O       -13.3889316877      -15.4950189518       -4.9235271634
 C       -15.4306555968      -16.9966641221       -4.7757095756
 C       -16.2123838747      -15.8384765142       -5.5400236974
 O       -16.4170120096      -14.7665907111       -4.9644281308
 C       -16.7565618743      -16.2773708288       -6.9417592287
 C       -16.9273666952      -15.1695303275       -7.9769198011
 C       -15.8838118081      -14.0696454463       -7.9629616171
 O       -14.8093438793      -14.3501909568       -7.3656442302
 C       -16.1490992212      -12.6716832582       -8.5235134044
 C       -16.1762829726      -11.6280684361       -7.2968553559
 O       -16.9731079540      -11.8294003794       -6.4242806230
 C       -15.1836787278      -10.3695865432       -7.2755602480
 C       -15.2961168027       -9.6635337104       -5.9072648053
 C       -14.1927968825       -9.9999445770       -4.8782414080
 O       -13.9166321206      -11.1588331947       -4.6147460269
 C       -13.3355206768       -8.8374134869       -4.3645972168
 C       -12.5586829062       -8.0833342678       -5.4395466589
 O       -12.6716296266       -8.5260960001       -6.5527815080
 C       -11.7555026370       -6.8729877941       -5.0813434696
 C       -11.6927094312       -5.7316999520       -6.1121673878
 C       -12.9054441387       -4.9102597725       -6.4148898701
 O       -14.0300182955       -5.2521924948       -6.2660936489
 C       -12.7568733561       -3.4879752264       -7.2090144581
 C       -11.8041751376       -2.4719284119       -6.3087081456
 O       -11.0639113247       -2.8918031452       -5.4581783888
 C       -11.7005556515       -0.9424600837       -6.6261605472
 C       -10.2971206355       -0.3881126809       -6.4828878504
 C       -10.2744091752        0.7486553388       -5.3846975213
 O       -11.1629927033        1.5953074583       -5.3995197485
 C        -9.0661984592        0.7833164878       -4.3120042704
 C        -7.6744739311        0.5470895416       -4.8670876761
 O        -7.4487772959       -0.6504094187       -5.1976738961
 C        -6.6558690132        1.6073093619       -5.2503264764
 C        -7.1462445467        2.6017809054       -6.2898969640
 C        -6.1382225989        3.6553711975       -6.6863687712
 O        -5.3075464669        4.1367653644       -5.8914544183
 C        -6.1651078580        3.9729145994       -8.2937333714
 C        -5.2248035388        2.7426090609       -8.8205024496
 O        -5.6750965021        1.6071933714       -8.7404514166
 C        -3.9013597268        3.0800134818       -9.4446699175
 C        -3.0873887704        1.8069731595       -9.8200754699
 C        -1.9101213645        2.2045840698      -10.6645726270
 O        -2.0186897981        2.7834261016      -11.7604652752
 C        -0.4161745205        2.0793984091      -10.0623995392
 C         0.8173388940        2.6652545685      -11.0528835114
 O         1.8189431057        2.0127870969      -11.2158092557
 C         0.7428361942        3.9337994930      -11.8678110591
 C         2.1296253353        4.6249112590      -11.8010008610
 C         2.1291388864        6.0070474423      -12.5184282970
 O         1.1194293091        6.6060638306      -12.7901387222
 C         3.5367168991        6.4706124984      -13.0475270455
 C         4.0491285690        5.4408725016      -14.0843426974
 O         5.2204601824        5.0613957298      -14.1858968227
 C         2.8913340043        5.0561576652      -15.0422447839
 C         3.1675069976        5.5576372735      -16.4736115162
 C         4.0449952237        4.5151662192      -17.2643620166
 O         4.2104846924        3.4352171849      -16.7078698293
 C         4.7024028432        4.9637901194      -18.6678633266
 C         6.2741345143        4.9147372624      -18.4712484822
 O         7.0671676234        4.5401830808      -19.2953605413
 C         6.7906729020        5.5733967895      -17.2171464255
 C         8.3245097256        5.2745878767      -17.0722847334
 C         8.4643587245        3.7696005137      -16.9238382880
 O         7.6592993466        3.0836720302      -16.2592772656
 C         9.7136356005        2.9923047665      -17.4876384338
 C        10.8927491947        3.2849561774      -16.4296418903
 O        11.0904878002        4.4149494134      -15.9900106880
 C        11.7116328859        2.1128075664      -15.9141253227
 C        12.4842359624        2.5685043864      -14.7021481781
 C        11.4161409106        2.4245039122      -13.5406691148
 O        10.4981126926        1.6698985970      -13.6592389449
 C        11.6714709129        3.3065000291      -12.1992715847
 C        10.5166502456        2.8725551838      -11.0930186562
 O        10.9039954227        2.5961332773       -9.9345766271
 C         9.1297666274        3.0546982607      -11.5770418782
 C         8.2844461550        1.7344791123      -11.6965084408
 C         6.9965065724        1.7830761429      -12.5749228833
 O         6.8388392437        2.7298964950      -13.3174082708
 C         5.8264013333        0.7268507081      -12.4789746046
 C         5.6199486798        0.0820375104      -13.8556473725
 O         5.4691449768        0.7588449525      -14.8338588622
 C         5.8096764934       -1.4283485972      -13.9172069044
 C         6.2330760926       -0.2760680724      -11.3369343953
 C         4.5427623760        1.4984385052      -12.0366626719
 C        13.0972014843        3.1641724433      -11.6468097044
 C        11.5624078984        4.8355462653      -12.6601707338
 C         9.1828999200        1.5321837541      -17.4537665765
 C        10.0332990246        3.3976005001      -18.9093165261
 C         4.2176795063        3.9318095472      -19.7517054729
 C         4.4355983025        6.2485894393      -19.2867768621
 C         3.3972794448        7.7834406430      -13.9015997991
 C         4.5492958642        6.4610392723      -11.8717409783
 C        -0.4272349423        2.7314088822       -8.6824753727
 C        -0.2272489548        0.5156308397       -9.7689613064
 C        -7.5090368748        3.9302179415       -8.9596944646
 C        -5.6264383110        5.4122656811       -8.4216302328
 C        -9.1108786751        2.0424424978       -3.4574992766
 C        -9.4403438546       -0.4160099800       -3.2892119388
 C       -11.8325258913       -3.7483731595       -8.4942686227
 C       -14.1661741076       -2.9168083962       -7.5579229454
 C       -14.2875455695       -7.9291635727       -3.5284239795
 C       -12.2188046916       -9.4361016923       -3.3514193706
 C       -15.0107262027      -12.3439581876       -9.4424336344
 C       -17.4570251896      -12.5241554256       -9.3600054976
 C       -15.7171395127      -18.4240957161       -5.2280054877
 C       -15.7886590758      -16.7718641102       -3.2338821405
 H       -12.3692126825      -18.1793902314       -5.2960696469
 H       -13.3917201403      -18.6128524744       -3.9908951352
 H       -12.1785023602      -17.3622618888       -3.7307749193
 H       -17.7842507647      -16.7141723649       -6.8261124026
 H       -16.1234017641      -17.0498261684       -7.4042509702
 H       -17.8424082982      -14.5277060675       -7.8976437082
 H       -16.9622530791      -15.6792621014       -8.9839946270
 H       -15.4452069530       -9.6221091018       -8.0474850346
 H       -14.1917850810      -10.6570456400       -7.4578310623
 H       -16.2471625975       -9.9418812896       -5.4325525766
 H       -15.3739805906       -8.5247645321       -5.9949287839
 H       -10.7738215085       -7.2443891553       -4.7891443618
 H       -12.1056582969       -6.4492337020       -4.1250768037
 H       -11.4295959645       -6.2244996660       -7.0368761495
 H       -10.7092703512       -5.2448815920       -5.9780098761
 H       -12.4458459475       -0.4329777788       -5.9711958294
 H       -12.1471088966       -0.5805465335       -7.5860692016
 H        -9.9520551747        0.1693124357       -7.3453399062
 H        -9.5671827801       -1.2019596258       -6.3229007119
 H        -5.8218607839        1.0817245225       -5.5925971332
 H        -6.4334826023        2.0632234000       -4.3284806423
 H        -8.1009548086        3.0278897034       -5.9546122091
 H        -7.4104384858        1.9182508959       -7.0773186719
 H        -3.3860576555        3.8437855117       -8.8609334243
 H        -4.2069613764        3.5351670954      -10.3581392364
 H        -3.7385406677        1.0702601537      -10.3049191710
 H        -2.8353692704        1.2723248421       -8.9608966922
 H        -0.0190785479        4.6326369484      -11.5684779455
 H         0.4460365005        3.6071905510      -12.8655250195
 H         2.8728170311        3.9672954715      -12.2909595294
 H         2.2868500261        4.5532678839      -10.7845462463
 H         1.9675912646        5.5914222478      -14.7348122605
 H         2.8286665756        4.0002361845      -15.1168325219
 H         3.5820901227        6.6024608403      -16.6803474935
 H         2.2108636413        5.5177908869      -17.0783619784
 H         6.3434787566        5.3174201520      -16.2727096350
 H         6.7159217202        6.5986055720      -17.2706180012
 H         8.6306358529        5.7661219967      -16.1186445981
 H         9.0741202665        5.7000230600      -17.9537753745
 H        12.3908998383        1.7005520151      -16.7205188093
 H        11.1228111237        1.1534208678      -15.7018715317
 H        12.7460477055        3.6274539167      -14.8122094668
 H        13.3824804121        1.8636151006      -14.5908301406
 H         9.2059623413        3.4177288470      -12.5808190794
 H         8.6357776080        3.7918825846      -10.9630515289
 H         8.0112539925        1.2472094885      -10.8132422639
 H         8.9993369379        1.0324730062      -12.2002878905
 H         5.2382953952       -1.8694859554      -13.1230545779
 H         6.8257862995       -1.6203681256      -13.7032004934
 H         5.5150298492       -1.8848868062      -14.8522518558
 H         5.4582061502       -1.0349844816      -11.1039160009
 H         6.2231577663        0.3010123464      -10.4556797216
 H         7.0291465266       -0.9430050883      -11.4380613407
 H         4.3361607530        2.3100422593      -12.8441493357
 H         4.4771561025        2.0651893520      -11.0660502565
 H         3.7651625690        0.8058898654      -11.9753489225
 H        13.8913177140        3.5026593539      -12.3319365645
 H        13.1907537258        2.1317192719      -11.2228914520
 H        13.1649338706        3.7823004852      -10.7263645778
 H        12.4958334763        5.1498608127      -13.1384238064
 H        11.3436125991        5.4294696692      -11.7709971939
 H        10.7232707281        5.1270326883      -13.2849062861
 H         9.0863555918        1.1174876666      -16.4284445783
 H         9.8232028166        0.9433754753      -18.1313125923
 H         8.1930417184        1.4926724696      -17.9367941897
 H        10.4634486119        4.3832693443      -18.9821447965
 H         9.1043942918        3.2535442474      -19.3937424328
 H        10.8254563068        2.6596750247      -19.3461205048
 H         4.9326737623        3.8290087460      -20.5374961584
 H         3.2364183809        4.2265753763      -20.1585291078
 H         4.2040181495        2.9482742043      -19.2885354661
 H         5.0099630962        6.3470735205      -20.2502458979
 H         4.6392239988        7.0549544828      -18.5894907174
 H         3.3571432316        6.1541436035      -19.5753562411
 H         2.8390269622        8.5360511105      -13.4029385408
 H         2.7085460447        7.5217088748      -14.7338062588
 H         4.3496416958        8.0351821293      -14.2602860588
 H         5.5788318980        6.9201407013      -12.1508726226
 H         4.7829461266        5.5015975343      -11.4050576935
 H         4.3332310599        7.1809122824      -11.1307457152
 H         0.4967629209        2.7743435268       -8.1779197468
 H        -1.1002059479        2.1465612642       -8.0836760600
 H        -0.6905656332        3.7293452681       -8.7866730651
 H         0.5233004817        0.3919775516       -9.0341292583
 H         0.2410081584        0.1267692125      -10.6650160182
 H        -1.1526863697        0.0815044469       -9.5105092241
 H        -7.8392998748        2.8518377315       -9.0424592267
 H        -7.4369931712        4.3340554508       -9.9266412672
 H        -8.3174581531        4.5570283738       -8.5495843269
 H        -5.1711173987        5.6345172214       -9.4117064361
 H        -4.8906762392        5.4594690297       -7.6675506826
 H        -6.4149041937        6.1777877827       -8.3711571469
 H       -10.0691951302        2.1119672583       -2.8463147783
 H        -9.1728162357        2.9780519684       -4.0237977481
 H        -8.3271550388        2.0785446441       -2.7517154412
 H        -8.6862018780       -0.3233309098       -2.5059074186
 H        -9.2131413139       -1.4286126136       -3.8064490325
 H       -10.5246793695       -0.4325374195       -3.1609830908
 H       -11.4132763522       -2.7858758324       -8.7830609487
 H       -12.3596987687       -4.2495379210       -9.3310867821
 H       -10.9686191363       -4.4164777089       -8.2139985799
 H       -14.4990116289       -3.3521997845       -8.4978613792
 H       -14.1820710145       -1.7929677507       -7.7184636671
 H       -14.8854497369       -3.2171885059       -6.7600508882
 H       -14.8734172764       -7.2161984737       -4.0732595617
 H       -13.7337035166       -7.2576172815       -2.8611935318
 H       -15.0265204677       -8.4853193397       -2.9649723601
 H       -11.3955079850       -9.9455554869       -3.9629172289
 H       -12.6795828904      -10.1030397520       -2.6251010121
 H       -11.7131541052       -8.6510456143       -2.7676707273
 H       -14.0233094086      -12.3727581458       -8.9691855886
 H       -15.1431634943      -11.4319091724       -9.9915961634
 H       -14.9045748059      -13.1559949865      -10.1709043940
 H       -17.5321364087      -13.2680758549      -10.1330147788
 H       -17.4016502546      -11.7664442422      -10.0920853822
 H       -18.3815858925      -12.5083159973       -8.6911407147
 H       -15.2298474999      -18.7059920735       -6.1369690850
 H       -16.7547516993      -18.4563387253       -5.5625091002
 H       -15.7281712582      -19.1282685673       -4.3398996368
 H       -15.5907381891      -15.7552560644       -2.9486617009
 H       -15.1187279970      -17.4211098716       -2.6257352066
 H       -16.8377526677      -16.9795034913       -2.9290012036
 Na      -14.4840542158      -13.2798047202       -5.3306550742
 Na        5.6561438792        2.9259408751      -15.0294398647
