232

 C       -18.9243781888      -12.3046150801       -0.2162096407
 C       -17.7612946606      -12.4181254297       -1.1334230244
 O       -17.7128990470      -11.7265136145       -2.1668882010
 C       -16.8162904554      -13.6337596873       -0.8995458047
 C       -15.3151363583      -13.4936317642       -1.5565927343
 O       -15.1448426209      -13.7369833919       -2.7250549371
 C       -14.2665451694      -12.9899615503       -0.6096559239
 C       -12.9398390436      -12.5965045653       -1.3174848235
 C       -13.2202017688      -11.6038315221       -2.4941169486
 O       -14.1673191740      -10.8872785678       -2.3958228422
 C       -12.3222511391      -11.6100495694       -3.7889306153
 C       -13.3198721252      -11.5058131214       -4.9588672609
 O       -13.9827657663      -12.4838209528       -5.2923511557
 C       -13.3870815479      -10.2177005858       -5.8009824910
 C       -14.5554701109       -9.9935025695       -6.6856591677
 C       -15.7204447580       -9.3271953803       -5.8772107454
 O       -16.4507534689       -9.8647521780       -5.1168293067
 C       -16.1025014669       -7.8016678446       -6.1543891922
 C       -14.9391379920       -7.0176472056       -6.5270274454
 O       -13.8630942245       -7.0948523008       -5.9076646650
 C       -15.0977740125       -6.0502179647       -7.6911172287
 C       -13.9154777818       -6.0595916762       -8.6237280708
 C       -14.0174175534       -5.0738758169       -9.7774410081
 O       -15.0492945718       -4.8063659828      -10.2967618268
 C       -12.6694390537       -4.4102294777      -10.4010322013
 C       -12.0457490340       -3.5246200096       -9.3174287298
 O       -12.3520579206       -3.6962454867       -8.1718893788
 C       -10.9327557141       -2.5728566658       -9.6475752440
 C       -10.3956387950       -1.9595240241       -8.3429056051
 C       -10.3538515140       -0.3553472435       -8.4376327736
 O       -10.9618851107        0.2226282963       -9.3023993552
 C        -9.6473339025        0.3874779271       -7.2918339057
 C        -8.1508650333        0.4023270506       -7.8542988935
 O        -7.5757318931       -0.6234046555       -7.6276907731
 C        -7.6674148293        1.3220564294       -8.8925189379
 C        -6.8286855363        0.5973157353      -10.0096215382
 C        -5.8709994933        1.6555562371      -10.5642868719
 O        -5.7864101379        2.8100314996      -10.2516593201
 C        -4.7504995503        1.1260408948      -11.5739216180
 C        -3.4480141991        0.6296086524      -10.7986467571
 O        -3.4265643998       -0.5101289203      -10.4032528833
 C        -2.2769616068        1.6523774814      -10.4393903531
 C        -1.2084540562        0.9618981418       -9.6967478883
 C        -0.0102168459        1.9041125633       -9.1445145575
 O        -0.2243391292        3.0199459494       -8.8922902817
 C         1.4262440110        1.2625346547       -9.0324208233
 C         2.4834462915        2.4701475554       -9.0832382020
 O         3.2468342478        2.6008196246      -10.0589272054
 C         2.5179759622        3.4853162694       -7.9752673499
 C         3.7372591721        4.3989027668       -8.1551061363
 C         3.7224818799        5.0240963619       -9.5955622785
 O         2.7807470252        5.6907915688       -9.8712566402
 C         5.0528037902        5.0340433823      -10.3910747861
 C         4.7797482408        4.5104006709      -11.7952694237
 O         5.7171163424        3.9434468419      -12.3683978644
 C         3.4688129475        4.8494431813      -12.4803157555
 C         3.5434220124        6.1856381098      -13.3481953257
 C         3.7326972709        5.8120738056      -14.8595248408
 O         3.5987855670        4.6465903973      -15.2364446082
 C         3.7382853336        7.0461922018      -15.8995285186
 C         5.0485562690        6.9223047662      -16.6444571920
 O         4.9552477657        6.5188822338      -17.7839101817
 C         6.3783636804        7.1931617763      -15.9299097974
 C         7.5854072998        6.4150113075      -16.5785550304
 C         7.2155054115        4.9186692763      -16.8217015408
 O         6.2627822538        4.3424842253      -16.2317620347
 C         8.2701448337        4.0345614015      -17.5826974786
 C         9.5412505252        4.0400504531      -16.6113616247
 O         9.4761425843        4.4406707139      -15.4925344935
 C        10.9609687114        3.6269583333      -17.2612285825
 C        11.6324210470        2.4055645038      -16.4681937972
 C        11.0183380577        1.0261706776      -17.1237589287
 O        10.4740006811        1.0707882880      -18.2228889845
 C        11.2040524804       -0.3775324603      -16.1449400778
 C        11.0619103741        0.1350153767      -14.6062365025
 O        12.0200933984        0.1141645814      -13.8882212423
 C         9.6840746666        0.8585813777      -14.2076810618
 C         8.5933496267       -0.1365037494      -13.8524547508
 C         7.2592498540        0.5496918578      -13.8662828439
 O         7.0361945192        1.4800351523      -14.6594290199
 C         6.0903482794        0.0114361794      -12.9869574899
 C         4.9296890453       -0.1072677180      -14.0134431868
 O         4.2354659672        0.8377118333      -14.2407117724
 C         4.9431067912       -1.3229075747      -14.8825221126
 C         6.3767052461       -1.4632797308      -12.4238339631
 C         5.7685724363        0.9606863647      -11.7905184789
 C        10.0514369988       -1.3490362338      -16.5653382120
 C        12.6589419972       -0.8307752436      -16.4369250598
 C         7.7315822812        2.5794342252      -17.6855041370
 C         8.4957073292        4.6500609505      -19.0405383913
 C         2.4602663661        6.8221379391      -16.7515705932
 C         3.6302958518        8.3913899863      -15.1760391368
 C         5.3825136990        6.5367638812      -10.4962789855
 C         6.2554659835        4.2997039942       -9.7062681639
 C         1.3454430764        0.4718642146       -7.6929883850
 C         1.7440855405        0.2684029048      -10.1391947837
 C        -5.2504641846       -0.0671140219      -12.4183140590
 C        -4.4925966045        2.2656561015      -12.4805478355
 C       -10.1910814080        1.8365915675       -7.2965302761
 C        -9.5784192705       -0.3787502322       -5.9069437655
 C       -11.6566463700       -5.5522936879      -10.6420160462
 C       -13.1629065283       -3.7667584990      -11.7212123003
 C       -17.2373114161       -7.9723240186       -7.1875474279
 C       -16.8130889017       -7.2168839567       -4.8531593563
 C       -11.4621224183      -10.3169849288       -3.7406112515
 C       -11.3399892320      -12.8107908617       -3.9700156549
 C       -16.7110020908      -13.9479652262        0.6064726243
 C       -17.5223927683      -14.7849599141       -1.6847308619
 H       -18.7329736770      -12.3188324252        0.8937341072
 H       -19.5853406313      -13.0747848587       -0.4900501386
 H       -19.3805056830      -11.3765079886       -0.5222746362
 H       -14.0504489590      -13.5963008636        0.2450177965
 H       -14.5982476834      -12.0392009036       -0.1544362185
 H       -12.4519775499      -13.5123578139       -1.6088889716
 H       -12.3191465844      -12.2054374169       -0.4610446623
 H       -12.4816957051      -10.4430852700       -6.3635262052
 H       -13.3232978425       -9.2561507001       -5.2178037704
 H       -14.9360867221      -10.8172453081       -7.1206304984
 H       -14.2921486684       -9.2909806136       -7.4392225038
 H       -15.1230961021       -5.1248052502       -7.1775349460
 H       -16.0905502763       -6.1358504083       -8.2401224056
 H       -13.8345644582       -7.0777540262       -9.0618017329
 H       -13.0230741325       -5.8875085575       -8.0535899575
 H       -11.4576005156       -1.8330240480      -10.2101097883
 H       -10.2269249187       -3.1762186357      -10.2167047387
 H        -9.3920696091       -2.3896737041       -8.0546362936
 H       -11.0691451338       -2.2060113575       -7.5038090428
 H        -7.0672361099        2.1624202768       -8.4519928056
 H        -8.6847711439        1.7611612815       -9.1684533070
 H        -7.4126789009        0.1605216111      -10.8371211463
 H        -6.3196600258       -0.2493937912       -9.5389130201
 H        -2.6718826842        2.4128140999       -9.8637805058
 H        -1.8803268724        2.0635685829      -11.3416285339
 H        -0.6659796372        0.2001759143      -10.1351213167
 H        -1.5771330167        0.4366822191       -8.7190233229
 H         2.6805372787        2.9710213589       -6.9762859637
 H         1.5839114462        3.9462881560       -7.9520691957
 H         4.6840515603        3.9137448314       -7.9218475782
 H         3.7265334265        5.2690510683       -7.4292218596
 H         2.6488900314        5.0259169336      -11.6870153178
 H         3.1858075384        4.0458891569      -13.1319596045
 H         4.3260083125        6.8132606524      -12.9773291722
 H         2.6245166840        6.7444211907      -13.4208521119
 H         6.2244755144        6.8489367017      -14.9180632084
 H         6.6007588046        8.2766982212      -15.8095259127
 H         8.5002317704        6.4455989069      -15.9597212129
 H         7.8097671311        6.9359280816      -17.6328010912
 H        11.6951696090        4.4490188333      -17.0979699268
 H        10.8936749947        3.5027024779      -18.3394642844
 H        11.4384738327        2.5925497654      -15.4562757108
 H        12.7019738609        2.3921625267      -16.7359631368
 H         9.4005441251        1.3896990319      -15.1305482196
 H         9.8305409620        1.6502611858      -13.3757051514
 H         8.9409700476       -0.6781466375      -12.9121646376
 H         8.5353572889       -0.8082745330      -14.6765344497
 H         5.0069810553       -2.1696798295      -14.2494338588
 H         5.6650452552       -1.3382604490      -15.6503416689
 H         3.9326143378       -1.5669420731      -15.3503766417
 H         5.4954718995       -1.8788304293      -11.9366780448
 H         7.1908606011       -1.4767883994      -11.6545926701
 H         6.6564133740       -2.0346980613      -13.3165439598
 H         6.4811551318        1.8429209748      -11.6740112289
 H         5.8129303704        0.3221876512      -10.7864443162
 H         4.7158868202        1.3107668658      -11.7227819221
 H        10.4811088718       -1.8582221831      -17.4340500412
 H         9.2236203964       -0.6716774755      -16.7894757342
 H         9.7782168499       -2.0802740864      -15.8218166860
 H        12.5527696833       -1.1141280776      -17.4834422283
 H        13.0536011050       -1.7202561177      -15.9714823397
 H        13.4538880858       -0.0913659620      -16.3133816353
 H         6.9469622140        2.2055868290      -17.0671808038
 H         8.5583924401        1.7744433375      -17.8989315613
 H         7.1783278604        2.5615017104      -18.6657533324
 H         8.6845894615        5.7034651331      -19.0414056062
 H         7.5501375328        4.1752061994      -19.4726674484
 H         9.1751969675        4.1016359499      -19.5228936564
 H         1.5915900023        7.2021507454      -16.3299768729
 H         2.1335697795        5.7687156971      -16.6845043192
 H         2.5607959951        7.2302424018      -17.7196165825
 H         3.6549086321        9.1831630449      -15.8467056413
 H         4.3307148834        8.5415017109      -14.4106850595
 H         2.6302368783        8.4096881586      -14.7217108999
 H         5.6381185207        7.1092227152       -9.6195659980
 H         4.7841320030        7.2409606756      -10.9679595773
 H         6.2825546793        6.5799275583      -11.1497995626
 H         7.1976668690        4.3340826434      -10.2946138105
 H         6.1653429829        3.2614797089       -9.6153103456
 H         6.3148417764        4.5451107853       -8.6557728615
 H         0.4965671307        0.7873886127       -7.1009895283
 H         2.3105812426        0.6730247336       -7.0985430469
 H         1.3239938474       -0.6719929735       -7.8688475671
 H         1.2997786693       -0.6931240977      -10.0177698198
 H         2.7729363113       -0.0157302766      -10.2026190001
 H         1.3830114732        0.7067166332      -11.0698085187
 H        -5.5079781478       -1.0388640978      -11.8470196585
 H        -4.5463205527       -0.4629284821      -13.2140849742
 H        -6.0933505661        0.3506672260      -12.9553323313
 H        -3.4488986316        2.1794796414      -12.8113109689
 H        -4.6997898564        3.2535677513      -12.0026464891
 H        -5.0758186250        2.2175815550      -13.3705579361
 H       -11.0588732699        2.0061629895       -6.6436148542
 H       -10.3251469440        2.2074773567       -8.3522246254
 H        -9.5120613955        2.5991726602       -6.9739381235
 H        -9.0458143857        0.1661954536       -5.1229948599
 H        -9.1648288005       -1.4224820586       -6.0325739490
 H       -10.6230928767       -0.5308442752       -5.5460997418
 H       -10.6936320742       -5.3220769559      -11.0359194385
 H       -12.0227106916       -6.4000862392      -11.1697514343
 H       -11.4253164974       -5.9565085900       -9.6929541949
 H       -13.9150805916       -4.2956425342      -12.2715093284
 H       -12.2833695131       -3.4701041084      -12.2962556912
 H       -13.7186269205       -2.8549081980      -11.3904111171
 H       -16.9755800561       -8.5330338195       -8.0766203486
 H       -17.8057495184       -7.0217116898       -7.3993241090
 H       -18.0976795925       -8.5895633762       -6.7913503994
 H       -16.1164535551       -7.0939080843       -4.0182804969
 H       -17.7173169258       -7.8676874694       -4.7964509572
 H       -17.1929968545       -6.2564109948       -5.1648527539
 H       -12.0795267959       -9.4968456123       -3.3439624970
 H       -11.1420286977      -10.1813972571       -4.7698647699
 H       -10.6263779946      -10.4780039871       -3.0308219381
 H       -11.8619134567      -13.6991135275       -4.1494022264
 H       -10.8160338100      -12.8512608053       -3.1024934227
 H       -10.8184693191      -12.4996015580       -4.8914104964
 H       -16.2751037649      -13.2228515609        1.2961259159
 H       -16.1904340515      -14.8753368934        0.6888519088
 H       -17.7004579047      -14.0103115939        1.0187102635
 H       -17.7107369504      -15.6686702501       -0.9942959719
 H       -16.9013903948      -15.1642329757       -2.5159358564
 H       -18.4573287904      -14.4257721259       -2.1075805475
 Na      -16.0175707611      -11.7708789500       -3.5674415637
 Na        5.1254045899        3.0132446175      -14.2733802952
