232

 C        -4.5506983757       -8.1304739482        5.7119163989
 C        -3.6413205539       -8.5127716931        4.6191010946
 O        -3.5823337754       -7.8286315059        3.6054988663
 C        -2.4874934146       -9.5829874099        4.7827950306
 C        -2.2780441528      -10.5252640760        3.4413235246
 O        -1.7728721330      -10.0100516395        2.4269723187
 C        -2.8235481632      -12.0512550396        3.2860146931
 C        -2.8540035169      -12.4413842221        1.8161157213
 C        -1.7206296225      -11.7539591478        0.8483376053
 O        -0.6038163399      -12.2059525149        0.8890390833
 C        -2.0398083507      -10.7982929453       -0.4178292761
 C        -1.0067271399       -9.5880877887       -0.5350346865
 O        -1.4849230752       -8.4247763687       -0.5598253200
 C         0.4983152909       -9.8123054737       -0.8092180226
 C         1.0602220439       -8.4488251931       -0.7877424467
 C         1.2427749405       -7.9128751467        0.6996385461
 O         0.4208745818       -8.1770736558        1.6216498676
 C         2.4791946403       -7.0855235053        1.0723222054
 C         2.1169866520       -5.6228999433        0.6453012241
 O         2.6577417988       -4.8977091919       -0.1773194756
 C         0.7211741507       -5.1975243255        1.2386843302
 C        -0.2603331720       -4.8070520261        0.0404282236
 C        -1.6494292638       -4.5176185837        0.4773576138
 O        -2.3487476529       -5.3637484529        1.0286910725
 C        -2.3691972996       -3.1321587388        0.2259911148
 C        -2.1845297807       -3.0047041731       -1.5563728432
 O        -1.0731167304       -3.0229619617       -1.9780971183
 C        -3.5053097425       -2.6826917321       -2.4237835329
 C        -3.5414445393       -3.0849712054       -3.8805795029
 C        -3.9311991117       -4.5224591287       -4.0204401101
 O        -3.5418463922       -5.4231972105       -3.3068573969
 C        -4.9322970992       -4.9477272742       -5.3096202521
 C        -4.0879715377       -4.4919845892       -6.5253177034
 O        -4.4534610330       -3.4482580589       -7.1056129856
 C        -2.9312818011       -5.3369922465       -7.0927999499
 C        -3.2024385026       -5.6152017453       -8.6316684176
 C        -1.8206049284       -5.7176662543       -9.3545600692
 O        -0.8280060342       -6.2606709829       -8.8457176606
 C        -1.8183587989       -5.3840341244      -10.8372278975
 C        -2.1975126187       -3.8954558190      -11.0101687733
 O        -1.7054907824       -3.0986977410      -10.2388244799
 C        -3.2708984333       -3.5020314519      -12.0473560039
 C        -3.6527099526       -1.9369735220      -12.0674750366
 C        -2.7834521082       -1.1158625536      -13.0020340194
 O        -2.3893958795       -1.5009858340      -14.0481433215
 C        -2.3317000518        0.3089474215      -12.5235136878
 C        -3.1959964052        1.2374187847      -13.3102620746
 O        -4.3932898528        1.0282082393      -13.3102611266
 C        -2.6222692014        2.4325349761      -14.0200667641
 C        -3.7348790111        2.9423806511      -15.0582656571
 C        -3.2500405398        3.9746498626      -16.0523688759
 O        -3.0781862825        3.7125639704      -17.2057668143
 C        -3.2628153778        5.6594813198      -15.7604419896
 C        -2.6068179237        6.4417974987      -16.9477551008
 O        -3.2410145530        6.8300076756      -17.9023468984
 C        -1.0649134185        6.8004600464      -16.6911223363
 C        -0.4129976918        7.5015760775      -17.9263716215
 C        -0.6168205713        6.6215184954      -19.1501483948
 O        -0.4414775839        5.4256836959      -18.9693337116
 C        -0.7455514009        7.2945409030      -20.6500668565
 C        -1.2114593633        6.1077992661      -21.6688632260
 O        -2.2228315220        5.5468695408      -21.2989376683
 C        -0.4196396867        5.8223348897      -22.9807178402
 C        -0.8489310386        4.6412672814      -23.7736430030
 C        -2.3553097590        4.6615862163      -24.3907706336
 O        -2.9701435813        5.6033396423      -24.8151487430
 C        -3.2866562417        3.4009992802      -24.1881949102
 C        -4.0813571523        3.7854240597      -22.9377937160
 O        -3.7124667194        3.4199216101      -21.8325818609
 C        -5.2636603608        4.7457598642      -23.1255047433
 C        -5.5837630915        5.5363652869      -21.8383655836
 C        -6.1632788268        4.5636734692      -20.7383895600
 O        -5.4771481609        4.1574552144      -19.8220571295
 C        -7.7347918096        4.2259477230      -20.6526059343
 C        -7.6590631966        3.2238157622      -19.3638385900
 O        -7.4471294528        2.0733658204      -19.6830853190
 C        -7.8820462936        3.8185500445      -17.9770991549
 C        -8.0658580351        2.7788731056      -16.8364624364
 C        -9.0924612275        3.2387539304      -15.8536499519
 O        -8.7240131012        3.9852662599      -14.9566562726
 C       -10.5450083845        2.7579357330      -15.7482693394
 C       -11.5881575487        3.8475965003      -16.3151384041
 O       -11.5399386733        4.2407816310      -17.4818514858
 C       -12.6639271866        4.3149873161      -15.2599427934
 C       -10.9556741229        1.4485377053      -16.4746760439
 C       -10.6323409251        2.4377609328      -14.2002498036
 C        -8.4636835231        5.5610398717      -20.2510683832
 C        -8.5351278826        3.5471501299      -21.7018178485
 C        -4.1382454687        3.1738988123      -25.4655895462
 C        -2.5776641857        2.0960602034      -23.8670121170
 C        -2.0164081397        8.2470032285      -20.4518046231
 C         0.6077045976        8.0829042469      -20.8938966712
 C        -4.7528572187        6.0881863448      -15.6455425789
 C        -2.3959008742        5.8898881221      -14.4095758686
 C        -2.5875386545        0.5294547701      -11.0053862811
 C        -0.8372619601        0.4775379536      -12.9127606058
 C        -0.3281751277       -5.4764692985      -11.4929201781
 C        -2.7575088563       -6.3508175112      -11.6868196224
 C        -5.2139908584       -6.5595659018       -5.2046756870
 C        -6.3566993336       -4.3178433222       -5.2880022600
 C        -3.8124127235       -3.1514253671        0.7223609311
 C        -1.6758930386       -1.8346752671        0.7506164047
 C         2.7326833170       -7.1919070595        2.6118915219
 C         3.7276725799       -7.6574696026        0.3152263894
 C        -1.9114077729      -11.6994645188       -1.6311650709
 C        -3.4468812430      -10.2670250547       -0.3200163700
 C        -1.1369710122       -8.7335649508        4.8942378639
 C        -2.5885326610      -10.5118501660        6.0243887416
 H        -5.1441639635       -8.8879662714        6.0242728980
 H        -5.2361727780       -7.3806982003        5.2945125587
 H        -4.0030355059       -7.5392289842        6.4941525284
 H        -3.8409386116      -12.0465248951        3.7833532887
 H        -2.1130527906      -12.7424219255        3.8536372222
 H        -3.8211345047      -12.2676632292        1.4409053180
 H        -2.7923775337      -13.4954737888        1.7863753463
 H         0.5552605363      -10.2611894806       -1.8574470332
 H         0.9132681115      -10.4295025680       -0.0089178669
 H         0.5748766864       -7.7389762336       -1.3300081817
 H         2.0885301472       -8.5519660077       -1.2222120582
 H         0.7996767662       -4.3397499474        1.8713995966
 H         0.2832895443       -5.9268733521        1.8793767706
 H        -0.2647527503       -5.6504182263       -0.6974561592
 H         0.2096121970       -4.0362593994       -0.6050045861
 H        -3.4843846128       -1.5981527289       -2.3911090530
 H        -4.3466818220       -3.0852333562       -2.0534945886
 H        -2.6605969885       -2.8667806784       -4.4401053606
 H        -4.3434723905       -2.4514456509       -4.4165582483
 H        -2.8499864149       -6.3529787751       -6.6001619949
 H        -2.0052774591       -4.8161160198       -7.0109639427
 H        -3.7803708046       -4.7802420159       -9.1554123089
 H        -3.7979904270       -6.5692005020       -8.6593729834
 H        -4.1369327093       -4.1226300136      -11.9355806250
 H        -2.7670711310       -3.7485066379      -13.0903352769
 H        -3.7456659202       -1.6091611674      -11.0582675060
 H        -4.6469518091       -1.8100600540      -12.4093788127
 H        -1.7309433954        2.1155118186      -14.5901901337
 H        -2.3526248964        3.1429852190      -13.2456775844
 H        -4.4656380118        3.4420229683      -14.4159956910
 H        -4.1423834207        2.0507833965      -15.5413531062
 H        -0.5717863021        5.8413974703      -16.6780588128
 H        -0.9102527441        7.4036097749      -15.8136923761
 H         0.6239828531        7.7184116344      -17.8391378651
 H        -0.9886510519        8.4452405349      -17.9940679213
 H         0.6177694597        5.6179215321      -22.6082888554
 H        -0.3533925781        6.6886299508      -23.6788346029
 H        -0.5741974908        3.6519548854      -23.4024483322
 H        -0.1196903673        4.9408645883      -24.5840886732
 H        -6.0973098487        4.1168631306      -23.4275530799
 H        -5.0351263071        5.4656918531      -23.9080792798
 H        -6.3158672644        6.2438304162      -22.1081550239
 H        -4.7045360318        6.0258866772      -21.4206525683
 H        -8.6396802528        4.6235333946      -17.9263237816
 H        -6.8877338455        4.3325584472      -17.7640696331
 H        -7.1619685012        2.6586231383      -16.3623570311
 H        -8.3216724254        1.8406498210      -17.4560264090
 H       -12.1350726558        4.8662169066      -14.4178984214
 H       -13.3366398503        3.4953743901      -14.9078618332
 H       -13.3391392387        5.1183421720      -15.6839706025
 H       -11.5611576292        1.5998765427      -17.3874570998
 H       -11.5508409515        0.7577988147      -15.9202072978
 H        -9.9367678659        1.0188356584      -16.7808651834
 H        -9.8230212105        1.7209274728      -13.8855714485
 H       -11.6237565017        2.0246720151      -13.9282344846
 H       -10.4714204433        3.2607898346      -13.4577779353
 H        -8.0302424894        6.1048737800      -19.4353050488
 H        -9.4540423151        5.3552716740      -20.0200396025
 H        -8.4793474161        6.2690622477      -21.0688809131
 H        -8.0860102495        2.5615657065      -21.8109052909
 H        -8.6390870190        4.0722183550      -22.6632110338
 H        -9.5579397686        3.3761753343      -21.3487818879
 H        -4.9985882352        2.5851103671      -25.3040174528
 H        -3.5325273052        2.5560613387      -26.1380642364
 H        -4.3712615920        4.0866034354      -25.9674994504
 H        -1.8590591711        1.9697061353      -24.6845155879
 H        -3.2167838478        1.2341805038      -23.6235136276
 H        -1.9449616492        2.3043687134      -23.0166330311
 H        -1.5397284129        9.2490613583      -20.2470801237
 H        -2.8049569922        7.9280277672      -19.7075828467
 H        -2.5710705645        8.2689190162      -21.3809024768
 H         0.5065028362        9.0180232997      -21.4961831495
 H         1.2402158757        7.3476012642      -21.2873296084
 H         1.0174248775        8.4567872123      -19.9356043975
 H        -5.1304149705        6.1917995210      -16.6733993018
 H        -4.8869613274        7.0246565447      -15.1914203777
 H        -5.5005172326        5.4570313619      -15.1771132351
 H        -1.3039354083        5.5880199383      -14.3984256815
 H        -2.9130112978        5.4539980796      -13.5310784890
 H        -2.3427927412        7.0029180509      -14.2876186198
 H        -2.0474430787       -0.2191130534      -10.3773224269
 H        -3.5887829695        0.6506352205      -10.6708082647
 H        -2.0528900940        1.4722670944      -10.7649037008
 H        -0.8091529256       -0.0458786999      -13.8946862595
 H        -0.3264930074       -0.1434502263      -12.1949758497
 H        -0.4746042751        1.5399098418      -12.9328856272
 H         0.2845938433       -4.7680778291      -11.0254556650
 H        -0.3541780716       -5.1733084047      -12.5578039882
 H         0.0969790444       -6.4593907768      -11.4007511361
 H        -2.7377604850       -5.9957366452      -12.7242648201
 H        -3.7409546666       -6.2736162711      -11.3780867622
 H        -2.6340794762       -7.3919216661      -11.6736180051
 H        -6.0973991372       -6.7679487294       -5.8379188357
 H        -5.4217183048       -6.9303641326       -4.2480167627
 H        -4.4954131511       -7.2924928546       -5.5022182122
 H        -6.7987768924       -4.1110720775       -6.2703593719
 H        -6.2335927610       -3.2710831852       -4.8376577116
 H        -7.1381843938       -4.8547417116       -4.7379858288
 H        -3.7868482503       -3.3045960831        1.8401028208
 H        -4.3464196541       -4.0615367061        0.3790840600
 H        -4.4210610477       -2.2500889562        0.5430369168
 H        -2.3193516036       -0.9630935109        0.4683443739
 H        -0.6426473146       -1.6684974359        0.3573294393
 H        -1.6752806028       -1.9398781088        1.7995081013
 H         1.9033999035       -7.6662459253        3.2428545889
 H         2.8856600480       -6.1986194271        2.9597693379
 H         3.6150285222       -7.8186228980        2.7698499186
 H         4.5655250215       -7.0109705493        0.5600396814
 H         3.7134009275       -7.5964226156       -0.7950581321
 H         3.9492743015       -8.6852157531        0.6323292205
 H        -2.2877104246      -11.3642474452       -2.5844937276
 H        -2.5280230327      -12.5955723258       -1.4737786202
 H        -0.9232391744      -11.9923085167       -1.7853951223
 H        -3.6694107675       -9.4195689090       -0.9311616535
 H        -3.7484780683      -10.0605229403        0.7132225524
 H        -4.1181874164      -11.0613757943       -0.7212157094
 H        -0.7083581395       -9.1831441445        5.7730565429
 H        -1.3333510651       -7.7069925396        5.1366375198
 H        -0.5216036109       -8.8259108312        4.0444273300
 H        -1.7401456630      -11.1622848311        6.2045782837
 H        -3.4518170047      -11.2269961665        5.8744524158
 H        -2.8439733445       -9.9679968391        6.9396014214
 Na       -2.0405151191       -7.5019478097        1.8653752523
 Na       -3.1658993222        4.4886150018      -19.3073549157
