232

 C        -4.4233380138       -8.1468179461        5.7940726068
 C        -3.4535735033       -8.4969461067        4.5926565144
 O        -3.5349299684       -7.8577661001        3.5867081120
 C        -2.3632012528       -9.7244941004        4.7908080751
 C        -2.3298900992      -10.4437564959        3.4727818098
 O        -1.7284747878      -10.0121110945        2.4842370729
 C        -2.8606395721      -11.8666643604        3.3048924059
 C        -2.7789819064      -12.3208137125        1.8023442244
 C        -1.6037823081      -11.7894998212        0.9604100463
 O        -0.4470518273      -12.1518793551        1.1032814427
 C        -2.0260635848      -10.9602814791       -0.2816382023
 C        -1.0973930807       -9.6936990553       -0.4972230296
 O        -1.5169691551       -8.5304642239       -0.3640702440
 C         0.3622702240       -9.8698496935       -0.8117871098
 C         1.0152016355       -8.4904476788       -0.7621246076
 C         1.1637774527       -8.0088087723        0.6738054642
 O         0.3164651454       -8.2693137159        1.5415245784
 C         2.4495567806       -7.1632169595        0.9004237216
 C         1.9812411392       -5.6706327637        0.5799426501
 O         2.7208170596       -5.0213747426       -0.1462012500
 C         0.7017634786       -5.1360577852        1.1734046384
 C        -0.2867770214       -4.6968614091       -0.0043568778
 C        -1.6838565352       -4.4366808561        0.4340969569
 O        -2.3610069247       -5.3098181922        0.9150552063
 C        -2.3900444538       -2.9918454953        0.1180976911
 C        -2.2467938149       -2.9271758125       -1.5014478164
 O        -1.1460614644       -3.0370964607       -1.9643164810
 C        -3.4967822210       -2.6146942244       -2.3019771704
 C        -3.5796833766       -3.1413808348       -3.7651400116
 C        -3.9868601409       -4.6264941300       -4.0365764908
 O        -3.4450605968       -5.4598919864       -3.3852677782
 C        -4.9479707601       -4.9480457833       -5.2161896551
 C        -4.1243947094       -4.5394130266       -6.6284343245
 O        -4.3210316143       -3.4930400340       -7.1753408967
 C        -2.8788846598       -5.3487895534       -7.1146641444
 C        -3.1184085202       -5.6696834982       -8.6997467244
 C        -1.8160132931       -5.8634556956       -9.4514686261
 O        -0.7986796554       -6.1456457315       -8.8223857167
 C        -1.8256230859       -5.3177690683      -10.9840416020
 C        -2.2165345279       -3.8530733970      -11.0764425116
 O        -1.7725748498       -2.9880020005      -10.3464880504
 C        -3.3024136623       -3.4422954114      -12.1822984628
 C        -3.6143675208       -1.9557276144      -12.0756911206
 C        -2.7041472714       -1.1270244230      -12.9993434467
 O        -2.4975693497       -1.3947688503      -14.1560434956
 C        -2.2497781258        0.3454111750      -12.4593564771
 C        -3.3198637759        1.3413001356      -13.2563833776
 O        -4.4838825555        1.0022670892      -13.3419604326
 C        -2.7087880588        2.5556683334      -14.0490412608
 C        -3.7124014999        3.1370030984      -14.9926555645
 C        -3.2658343016        4.1210790277      -16.0840742567
 O        -3.0827493377        3.6128883975      -17.1690743885
 C        -3.3096988149        5.6789426688      -15.7481430012
 C        -2.5924776003        6.4198667532      -16.8806535075
 O        -3.2319907873        6.5856570380      -17.9300570139
 C        -1.1716049142        6.7588960396      -16.7537553745
 C        -0.4268362512        7.5671860497      -17.8972606174
 C        -0.6239140264        6.7350824402      -19.1780593265
 O        -0.6289719064        5.5074986008      -19.0853127484
 C        -0.8027829892        7.2967945461      -20.5404044226
 C        -1.1742275156        6.0714403708      -21.5291144057
 O        -2.1123851862        5.3460714854      -21.3257312573
 C        -0.4495072702        5.9725856190      -22.9474567946
 C        -0.9267373151        4.5775975654      -23.8277915412
 C        -2.3551683995        4.6045266826      -24.2670822296
 O        -2.8338884158        5.7020847551      -24.5675358665
 C        -3.2369749877        3.3039390128      -24.2439598279
 C        -4.1143691945        3.7937995145      -22.9614457285
 O        -3.8149952894        3.5935240037      -21.8308162755
 C        -5.3862839046        4.7545555968      -23.2121636657
 C        -5.6451702489        5.4946559754      -21.8615406256
 C        -6.1328646598        4.5364765457      -20.7792709875
 O        -5.4189644981        4.1970709365      -19.8433530833
 C        -7.6738003008        4.2345513009      -20.6664739278
 C        -7.6600063691        3.2167148308      -19.3462743268
 O        -7.4101847519        2.0428174509      -19.4647154082
 C        -7.8747616526        3.8665015163      -18.0039453331
 C        -8.0712101194        2.7792895775      -16.9277539493
 C        -9.0339430709        3.2775693189      -15.7251954094
 O        -8.6125813334        3.9426167211      -14.8274972500
 C       -10.5265606589        2.7021297895      -15.7155916635
 C       -11.5341153075        3.8529688626      -16.2489962622
 O       -11.3914057488        4.4086376075      -17.2915828355
 C       -12.6783202120        4.2132832182      -15.3205567736
 C       -10.9098948716        1.4380107601      -16.5290556676
 C       -10.8052784880        2.4273633894      -14.1875995915
 C        -8.3378305087        5.5778449153      -20.3221233739
 C        -8.4747255972        3.5878131758      -21.8248021313
 C        -4.1715679121        3.0989658295      -25.5140580772
 C        -2.5665827773        1.9055342959      -23.9809695539
 C        -2.0635175816        8.2320964205      -20.5923409187
 C         0.4480743195        8.0344790316      -20.8738419868
 C        -4.6980180959        6.0433675704      -15.5668783775
 C        -2.6025257658        5.9453553946      -14.3972067980
 C        -2.4863413469        0.6372995792      -10.9411694597
 C        -0.7394292447        0.4455421131      -12.8138727914
 C        -0.3428131532       -5.5644284567      -11.5263949350
 C        -2.7295162146       -6.3086838171      -11.7354361381
 C        -5.3511526937       -6.4079964861       -5.2325677318
 C        -6.2494442493       -4.1797737584       -5.1176654272
 C        -3.8539409736       -3.1003225802        0.5670996729
 C        -1.5377478777       -1.8982223548        0.7426150939
 C         2.7927811666       -7.3069529718        2.4245260263
 C         3.8024071369       -7.4905307643        0.1802867359
 C        -1.7307413868      -11.7385884916       -1.5545212246
 C        -3.5283625963      -10.4041280596       -0.1716933048
 C        -1.0790798849       -8.8377321036        4.9632569887
 C        -2.7823356529      -10.5511915642        6.0122308535
 H        -5.0660532809       -9.0852642363        5.9908322428
 H        -5.1411013060       -7.3697212331        5.5869240730
 H        -3.8458916263       -7.7824171456        6.6524604104
 H        -3.8987460163      -11.7922766286        3.7543650809
 H        -2.2268900216      -12.5498181982        3.9314434508
 H        -3.8069652678      -12.0717434305        1.3376808958
 H        -2.8210682239      -13.4032180513        1.7680783833
 H         0.4096864874      -10.2786591817       -1.7846002967
 H         0.6711462066      -10.5448558435       -0.0418417755
 H         0.3932420652       -7.6979734780       -1.1971940488
 H         2.0070776466       -8.4573765121       -1.2691300125
 H         0.8011109770       -4.2952800826        1.8757729930
 H         0.2459920300       -5.9422618614        1.7476245966
 H        -0.2942972378       -5.4813473840       -0.7966990244
 H         0.1413020769       -3.8852542013       -0.6034295780
 H        -3.4543334074       -1.5681273672       -2.3357707728
 H        -4.4236392298       -3.0040674715       -1.8301628764
 H        -2.6295049172       -3.0064234390       -4.1794962139
 H        -4.1961120295       -2.4809867168       -4.3718312393
 H        -2.5613860188       -6.3219987829       -6.6318242626
 H        -2.0792989301       -4.6510836935       -7.0186303849
 H        -3.6517772016       -4.8544351045       -9.2685904340
 H        -3.7257229217       -6.6110477171       -8.6492761593
 H        -4.2499629258       -4.0030063575      -11.9508573010
 H        -2.9810329815       -3.7066525629      -13.2246980548
 H        -3.5738171976       -1.7451929824      -10.9852627653
 H        -4.6456568569       -1.7344499383      -12.2821623089
 H        -1.9611843001        2.1270284773      -14.6296232063
 H        -2.2309305383        3.2737719295      -13.2878926194
 H        -4.5668580993        3.4925557734      -14.3525141187
 H        -4.0035516049        2.2853113478      -15.5077845305
 H        -0.6732826865        5.8254182987      -16.8743099046
 H        -1.0063429019        7.2646204360      -15.7876926687
 H         0.6094305355        7.7882871570      -17.6133998263
 H        -0.9775475178        8.5024461949      -18.0677374904
 H         0.5548028192        5.9229591786      -22.7796891290
 H        -0.6389555902        6.8170459923      -23.5401856859
 H        -0.8544810811        3.6543076180      -23.1861606492
 H        -0.1199035870        4.6080984513      -24.5533527673
 H        -6.2634222325        4.1866522131      -23.5315023731
 H        -5.0738690950        5.5754036780      -23.9982782591
 H        -6.3602197683        6.3129345445      -22.0113980373
 H        -4.7466085163        5.8878221055      -21.4620306394
 H        -8.7416259952        4.5168084535      -18.0001256698
 H        -6.9925217213        4.5346431893      -17.7309511823
 H        -7.0463927103        2.5053518597      -16.5629159186
 H        -8.4924643707        1.9219493723      -17.4987156506
 H       -12.4776781253        4.7828876480      -14.4238807141
 H       -13.1764726218        3.2859719961      -15.1520207053
 H       -13.4760814984        4.7623666981      -15.9411747598
 H       -11.1479799127        1.5896105961      -17.5580701423
 H       -11.8278548985        0.9925405681      -16.1605219396
 H       -10.0046590903        0.7865333454      -16.4434414416
 H       -10.2958262370        1.5812211973      -13.8187705645
 H       -11.8622062952        2.3474267290      -13.8409679664
 H       -10.3761254828        3.2274344305      -13.5413248894
 H        -7.7858729052        6.1161237598      -19.5416428835
 H        -9.3644437208        5.5616742728      -20.1728537011
 H        -8.2389709195        6.2649099871      -21.1591609105
 H        -8.0040719856        2.6139965458      -22.1323998131
 H        -8.5369640076        4.2090648203      -22.6505452595
 H        -9.4903595905        3.4312368007      -21.5257040877
 H        -5.1207422103        2.6687590632      -25.2373859296
 H        -3.6749649521        2.4924079093      -26.2647727884
 H        -4.3607852422        4.0571842522      -25.9742790513
 H        -1.7203902232        1.8033455203      -24.6399050148
 H        -3.3866680209        1.1021458897      -24.1112071113
 H        -2.1897377555        1.8046959869      -22.9665216708
 H        -1.8811909322        9.1741212007      -20.1182347027
 H        -3.0423251794        7.6533442103      -20.2785575145
 H        -2.3012918099        8.3185677358      -21.7328083821
 H         0.4570875543        8.3611712803      -21.9409685761
 H         1.2784704428        7.3131124137      -20.6228496603
 H         0.4808449407        8.9622334520      -20.3561424100
 H        -5.2614922589        5.7847738530      -16.4820900576
 H        -4.8662869511        7.0857419025      -15.4149796586
 H        -5.2545375945        5.5352392917      -14.7913793494
 H        -1.6630699964        5.5571863949      -14.2108883919
 H        -3.2841714509        5.6462261593      -13.5355707700
 H        -2.4663342775        7.0878891715      -14.3893909638
 H        -1.7349761451        0.1603706325      -10.2449634973
 H        -3.5228613288        0.4679333063      -10.5991768998
 H        -2.3156524057        1.7471063553      -10.7369241842
 H        -0.6777701177        0.0816391557      -13.8281405418
 H        -0.2305067427       -0.2606083985      -12.1275512643
 H        -0.3504884521        1.4944107786      -12.6078864754
 H         0.3047334811       -4.9220897722      -10.7905722689
 H        -0.1193790622       -5.1642530174      -12.4843276728
 H        -0.0638030029       -6.6789698580      -11.4363941212
 H        -2.8162650217       -6.0933887921      -12.7833427028
 H        -3.7114596864       -6.2866435867      -11.3209203926
 H        -2.4585249903       -7.3472341811      -11.6414401238
 H        -6.2033475870       -6.6363903804       -5.9025485960
 H        -5.5015965832       -6.8924939810       -4.2676860366
 H        -4.5603183716       -7.0683184644       -5.5770242265
 H        -6.7527270496       -4.1188677879       -6.1603878279
 H        -6.1352613844       -3.1311725339       -4.8336402102
 H        -7.0240164424       -4.6328129416       -4.4943822086
 H        -3.9169529275       -3.0327824634        1.5956601153
 H        -4.2776089223       -4.1085454967        0.3218682888
 H        -4.5320382225       -2.3063633114        0.1678330706
 H        -2.0868634992       -0.9313045739        0.5794041354
 H        -0.5531024475       -1.7995998093        0.3015352946
 H        -1.4270891692       -2.1413343763        1.8624063861
 H         2.1737686795       -8.1690167073        2.8038841805
 H         2.6804432362       -6.4541443275        3.0560977879
 H         3.8072539954       -7.7287031739        2.4658093203
 H         4.5936094153       -6.9267022144        0.6249062122
 H         3.7635226286       -7.1271145739       -0.8828489792
 H         4.0333160511       -8.5904831328        0.1643685333
 H        -2.0406826000      -11.1844371117       -2.3720203263
 H        -2.2757211595      -12.6468311532       -1.6221062532
 H        -0.6953345785      -11.9675896682       -1.7972449629
 H        -3.7941425516       -9.6684006309       -0.8949679730
 H        -3.6920725267       -9.9485009385        0.8033168431
 H        -4.2662046788      -11.1533744398       -0.2953968393
 H        -0.3204994593       -9.4161145339        5.4711750011
 H        -1.3558992657       -8.0250571004        5.6449639110
 H        -0.7930647140       -8.3990070548        4.0209834884
 H        -1.9236527679      -11.2368924552        6.2769551344
 H        -3.5639283609      -11.2757579393        5.7870877550
 H        -3.0722046921       -9.9904452607        6.9590319458
 Na       -1.9642730947       -7.5680023551        1.7848303177
 Na       -3.2266190290        4.5216821372      -19.2969073330
