232

 C        -4.2905556047       -8.2039589984        5.7871166555
 C        -3.4021765755       -8.5411568314        4.5588626410
 O        -3.4540234982       -7.8623810260        3.5569951889
 C        -2.3848918676       -9.6720360035        4.8273823963
 C        -2.2647888278      -10.3559548520        3.4536114550
 O        -1.7320478597       -9.7898750161        2.5607230277
 C        -2.8347226321      -11.8109608334        3.3318494682
 C        -2.6932735532      -12.4193828737        1.9004838833
 C        -1.5477453276      -11.8322153791        1.0855860529
 O        -0.3956715790      -12.0836786946        1.3406265437
 C        -2.0197635960      -10.9972685249       -0.2684533597
 C        -1.2437087420       -9.7040839780       -0.3064151725
 O        -1.7700120835       -8.6518718068       -0.1622719501
 C         0.2337064499       -9.9345696790       -0.8367489870
 C         1.0784419244       -8.6350441174       -0.8926408321
 C         1.2822109058       -8.1280216321        0.5456177627
 O         0.4551884122       -8.2214004161        1.4039560044
 C         2.5383833160       -7.2840904556        0.9141111400
 C         1.9815936114       -5.6959135390        0.5897883127
 O         2.6984183322       -5.0801629593       -0.1018687574
 C         0.6929792572       -5.0787719757        1.1131819678
 C        -0.2078729491       -4.6115000881       -0.0103171054
 C        -1.7188447146       -4.4516934003        0.3817628542
 O        -2.4150287652       -5.3022724290        0.9301051054
 C        -2.3923646285       -3.0877832764       -0.0096425776
 C        -2.3478071175       -2.8705869612       -1.5012512588
 O        -1.2661296030       -2.9699735757       -2.1059415475
 C        -3.6584164704       -2.5565354288       -2.2680763296
 C        -3.5001738885       -3.1021447208       -3.7488543702
 C        -3.9183743368       -4.6673158069       -4.0405582454
 O        -3.4082486372       -5.6208112562       -3.4294576400
 C        -4.8304003590       -4.9221155131       -5.2818145285
 C        -4.0537121062       -4.5133021290       -6.5861061730
 O        -4.4096074952       -3.5146983605       -7.1422062234
 C        -2.9987378211       -5.4634038502       -7.1475713941
 C        -3.1390069629       -5.6747863233       -8.6668151618
 C        -1.7425451570       -5.6962112836       -9.4208202251
 O        -0.7538704407       -6.0781710328       -8.9449962864
 C        -1.7932037753       -5.3897344363      -10.9925576920
 C        -2.2514170613       -3.8778702013      -11.1501027439
 O        -1.8064988950       -2.9715114251      -10.4833199526
 C        -3.2707540382       -3.4199290268      -12.2197472449
 C        -3.6059148559       -1.9610733130      -12.1060254137
 C        -2.7816085281       -1.0184550770      -12.9168439089
 O        -2.5373013509       -1.3238167354      -14.1208223425
 C        -2.2685444423        0.3961782263      -12.4794213136
 C        -3.2110625495        1.2930503946      -13.2875885414
 O        -4.4060429096        1.1131350558      -13.3080810853
 C        -2.7359508963        2.5498197688      -14.0556938400
 C        -3.8811636060        3.1998119238      -14.8442779206
 C        -3.3117366482        4.0842934552      -16.0234674993
 O        -3.0214140639        3.6886041465      -17.1514625514
 C        -3.3719682194        5.6332274835      -15.6848442121
 C        -2.5759499754        6.3527447270      -16.9281163629
 O        -3.1949132000        6.4080378745      -17.9878671086
 C        -1.0668112543        6.7986117293      -16.6736701698
 C        -0.6379788439        7.5496550517      -17.9445523858
 C        -0.8044431819        6.5788541587      -19.2240230248
 O        -0.7575428123        5.3947537585      -18.9964581200
 C        -0.8847300204        7.2656139820      -20.7146943097
 C        -1.2050372923        6.0999019203      -21.6184396984
 O        -1.9452143607        5.1786633701      -21.2498670255
 C        -0.5312556339        5.9820046816      -22.9533731789
 C        -0.8484937025        4.5562309110      -23.6131790623
 C        -2.3362794834        4.6501891935      -24.0739293998
 O        -2.7812913399        5.7248131994      -24.4463105618
 C        -3.3658101921        3.2771265399      -24.1930246023
 C        -4.2278169102        3.7452418080      -23.0360557153
 O        -3.7808220613        3.5076288657      -21.9155254129
 C        -5.3575006439        4.6895896262      -23.2714052424
 C        -5.7128569111        5.4258779440      -21.9911069726
 C        -6.1694496656        4.5763112605      -20.8044551736
 O        -5.4205226475        4.2811678877      -19.8552882522
 C        -7.6126242484        4.2461544527      -20.5642034708
 C        -7.7203755644        3.2584869525      -19.3287208465
 O        -7.4463917784        2.0725283608      -19.3879778674
 C        -8.0116232678        3.8974694967      -17.9534600835
 C        -8.1781075702        2.7654397045      -16.8800798368
 C        -9.0503366214        3.1584664986      -15.6747171718
 O        -8.4872222556        3.8902572326      -14.8523861773
 C       -10.4924701757        2.7131054558      -15.5741824389
 C       -11.4989342630        3.8759158761      -16.1142832367
 O       -11.0999031401        4.4798096888      -17.0816601545
 C       -12.8208787710        4.1868109852      -15.4183276619
 C       -10.7385715216        1.5207044594      -16.5201210957
 C       -10.9563441520        2.3777376783      -14.2046132433
 C        -8.2654689826        5.5909918791      -20.3250101386
 C        -8.2230182382        3.5796669692      -21.9004452368
 C        -4.1453934302        3.2040795885      -25.4946181553
 C        -2.5748996107        1.9453156016      -23.9795412627
 C        -2.1355768777        8.2799169823      -20.7874419072
 C         0.3910458013        8.0826026834      -21.0479513307
 C        -4.8707484212        6.0536802364      -15.6210004049
 C        -2.7140187323        5.9545464025      -14.2564378473
 C        -2.4084157056        0.7137949961      -10.9896717318
 C        -0.7674460318        0.5423134284      -12.7506168646
 C        -0.3567814214       -5.6000919481      -11.5102975156
 C        -2.7276913641       -6.3176676787      -11.7968471460
 C        -5.3111645560       -6.3520145765       -5.3123939856
 C        -6.0958963565       -3.8848884511       -5.0660193559
 C        -3.8242166552       -2.9966496796        0.4979280629
 C        -1.4647767467       -1.9810868941        0.7273727024
 C         2.8314582812       -7.3227758956        2.5292538192
 C         3.6522060642       -7.3662008973       -0.0156446089
 C        -1.7805954221      -11.9142227662       -1.5057942679
 C        -3.5060374406      -10.5099655341       -0.2118946502
 C        -0.9986695620       -9.0305568440        5.1431423493
 C        -2.8396716507      -10.5430718774        5.9404348158
 H        -5.0038443189       -9.0703321469        6.0135351693
 H        -4.9079711828       -7.2784391901        5.8154279142
 H        -3.5469724714       -8.0924455385        6.5511796857
 H        -3.8331573026      -11.6325427548        3.6887861872
 H        -2.3372628770      -12.4599912002        4.0339462244
 H        -3.6917245892      -12.4014737742        1.4045942547
 H        -2.4920742534      -13.5655548724        1.9799013226
 H         0.0607133712      -10.2552132333       -1.8125866529
 H         0.6383611957      -10.7490584663       -0.2512838175
 H         0.4283819162       -7.7490616371       -1.3545669864
 H         2.0152205350       -8.6936812464       -1.4312078918
 H         0.9566285325       -4.1265477641        1.6572778412
 H         0.1149550390       -5.6894274522        1.8602660734
 H        -0.1545284746       -5.2562260539       -0.8762728548
 H         0.2293406847       -3.7368555798       -0.4599834433
 H        -3.8260845892       -1.4669034353       -2.2121360572
 H        -4.5230058526       -3.1848072323       -1.8392350741
 H        -2.4204807547       -2.9391689762       -3.9779845769
 H        -3.9442939639       -2.5191148212       -4.4590269483
 H        -2.8049142461       -6.3613741180       -6.6280848510
 H        -2.0214114904       -4.8716085983       -7.0759383947
 H        -3.7581381614       -4.9004012863       -9.0953220901
 H        -3.5260536068       -6.6859758174       -8.8318007871
 H        -4.2498742373       -3.9834064826      -12.0064327910
 H        -2.9410678147       -3.6579722848      -13.1621740982
 H        -3.6281739355       -1.7561651479      -11.0200184265
 H        -4.7156920438       -1.8842702426      -12.3248934658
 H        -1.8005394346        2.4589965262      -14.6183472784
 H        -2.5667058750        3.2758519432      -13.2406463584
 H        -4.3720920771        3.7691203090      -14.0880174855
 H        -4.5921694513        2.4091347494      -15.1805393099
 H        -0.3418217977        5.9601904637      -16.6020578944
 H        -1.1309309652        7.5336901981      -15.8462763745
 H         0.4707515576        7.7176501354      -17.7551282399
 H        -1.1891725131        8.4836918029      -18.0322746337
 H         0.4985883990        6.2314913572      -22.9250259747
 H        -1.0214742661        6.6890189318      -23.5489559870
 H        -0.8382189991        3.8438810075      -22.7775064848
 H        -0.0442439428        4.3807617660      -24.3071320496
 H        -6.2940767063        4.1515650313      -23.6400054240
 H        -4.9817493046        5.4199740418      -24.0443107830
 H        -6.4781950990        6.2105693849      -22.2300982429
 H        -4.8420210500        5.9381719752      -21.5655394680
 H        -8.9784630418        4.4081047970      -18.0054499736
 H        -7.3296877908        4.6377587235      -17.6094368228
 H        -7.0759433504        2.5998802690      -16.5301184475
 H        -8.4931131144        1.9022899578      -17.3945591404
 H       -12.5850305895        4.6401654876      -14.4686957326
 H       -13.4063601626        3.2776914379      -15.2742895110
 H       -13.4650728119        4.7619815496      -15.9897436320
 H       -10.3766171972        1.6695633933      -17.5270512185
 H       -11.8270527665        1.4518745951      -16.7330882331
 H       -10.3018758788        0.6894114649      -16.1252287576
 H       -10.4318055042        1.4934070078      -13.8813157600
 H       -11.9892643363        2.2167028132      -14.0038021674
 H       -10.6464743031        3.0816891046      -13.4827833874
 H        -7.6568687643        6.2358912986      -19.7150044389
 H        -9.4106064188        5.6322926606      -20.0650912882
 H        -8.3130845063        6.1574311872      -21.2758517100
 H        -7.6741854640        2.7745634415      -22.3253082173
 H        -8.1391598602        4.3864431258      -22.6359452460
 H        -9.2910125695        3.4493163568      -21.8796205566
 H        -5.1427397624        2.6944366115      -25.3155419281
 H        -3.5397510990        2.8177848291      -26.3236087701
 H        -4.4003572050        4.2327290631      -25.7997177562
 H        -1.6271648492        1.9576315643      -24.5327275499
 H        -3.2573236165        1.1876809047      -24.2993564980
 H        -2.3475077401        1.7284705510      -22.9108620515
 H        -2.1579655058        8.9611511027      -19.9165614168
 H        -2.9763722254        7.6366566671      -20.8618959465
 H        -2.2130547132        8.8069579017      -21.7633325038
 H         0.6945981676        7.9457847927      -22.0677911484
 H         1.2440449653        7.7857831099      -20.3675474925
 H         0.1172614168        9.1353333614      -21.0417255280
 H        -5.5673162402        5.6167639538      -16.3067901960
 H        -4.9899949965        7.1807494043      -15.7582321252
 H        -5.3262647229        5.8397930143      -14.6650034519
 H        -1.7087595800        5.5496208848      -14.1273579401
 H        -3.2964269936        5.4645284914      -13.4983317017
 H        -2.6363762862        6.9954596657      -14.0687252527
 H        -1.6115951526        0.2133873178      -10.4268558074
 H        -3.4568287841        0.3995690860      -10.6349646804
 H        -2.3058539874        1.7712735714      -10.6660262941
 H        -0.5392497898        0.4648137673      -13.8116184609
 H        -0.1872195135       -0.1863038491      -12.1462404854
 H        -0.6075091378        1.4875948125      -12.2511756232
 H         0.3425049341       -5.0199177945      -10.8510802395
 H        -0.2715292436       -5.0164158314      -12.4710981457
 H        -0.0380000125       -6.6775589139      -11.6441216243
 H        -2.7624616956       -6.0433265705      -12.8240442267
 H        -3.7935723768       -6.2297522036      -11.3866160552
 H        -2.5224231504       -7.4034729197      -11.7890188666
 H        -6.0295582000       -6.6750419851       -6.0345875995
 H        -5.5727251594       -6.6999722697       -4.2758984584
 H        -4.4609312784       -7.0690764909       -5.4237453113
 H        -6.8764825028       -4.0258373495       -5.8097812630
 H        -5.9360951472       -2.8362694313       -5.0422352539
 H        -6.6079412193       -4.2167991123       -4.1377460922
 H        -3.7826467840       -2.9128358794        1.5738873157
 H        -4.5775748136       -3.6916454465        0.2430437377
 H        -4.1413921523       -2.0135551218        0.2020554186
 H        -1.9923093015       -1.0491092463        0.5829645297
 H        -0.4589939237       -1.8616954923        0.2857773501
 H        -1.3116445239       -2.2546029040        1.8333070229
 H         2.4323048625       -8.2353596788        2.8067335265
 H         2.4112587400       -6.4909287623        3.1731345197
 H         3.9243586540       -7.4025223506        2.6828221692
 H         4.5939177992       -6.8143910279        0.2173795832
 H         3.2523079765       -6.9649200775       -0.9350460166
 H         3.8441071274       -8.4082735848       -0.2633456014
 H        -1.7347402701      -11.3584995516       -2.4512396639
 H        -2.5310868384      -12.6642624062       -1.5523918793
 H        -0.8019397324      -12.4428795659       -1.5564282167
 H        -3.7881450039       -9.9320849602       -1.0884019039
 H        -3.6988843832       -9.8667399549        0.6139669929
 H        -4.2010927996      -11.2951791568       -0.1351062112
 H        -0.2700453079       -9.8128851829        4.9192248055
 H        -0.8674232116       -8.7303855047        6.1883062246
 H        -0.9286035709       -8.1145514312        4.4662679985
 H        -2.0297077849      -11.3194428644        5.8737517743
 H        -3.7317779391      -11.1365926959        5.8047910461
 H        -2.8049089273      -10.1493186440        6.9657472785
 Na       -1.8868241396       -7.6524387121        1.6539976291
 Na       -3.2268172019        4.6236232129      -19.4136961365
