232

 C        -4.1707652941       -7.9865934908        5.7945939021
 C        -3.1680757647       -8.3424797484        4.7162953787
 O        -2.9207029529       -7.6749212353        3.7399101048
 C        -2.3538773579       -9.6925507076        4.9646334679
 C        -2.2980991817      -10.4939295287        3.5951163756
 O        -2.0639066681       -9.9087695640        2.5896969135
 C        -2.6415097333      -12.0110572357        3.5672539744
 C        -2.4901604302      -12.5501745736        2.1081969427
 C        -1.5871141972      -11.7950806901        1.1301365989
 O        -0.3948039163      -11.7732127270        1.2891346509
 C        -2.1110084769      -11.3331803436       -0.2607273958
 C        -1.4344933629      -10.0275692268       -0.6361240965
 O        -1.8720059992       -8.9234458193       -0.4928300202
 C         0.0517243437      -10.2355370434       -0.8965028100
 C         0.9302431019       -8.9359212610       -0.8903856533
 C         1.2474429191       -8.1805901236        0.5208230104
 O         0.4952674816       -8.1835763326        1.4164768667
 C         2.5989037257       -7.0716197639        0.7205207521
 C         2.0746767208       -5.5592810638        0.4595939667
 O         2.6962107046       -4.7463682366       -0.1253287898
 C         0.6565286299       -5.1618758213        1.0863898951
 C        -0.3566173818       -4.8800406902       -0.1356115031
 C        -1.7240704927       -4.5318299919        0.4084085056
 O        -2.4563180924       -5.3009434439        1.0100452922
 C        -2.2624440475       -3.1234908043        0.0579872919
 C        -2.2665238131       -2.9436594133       -1.5085227279
 O        -1.1655903889       -2.6116403723       -1.9923366246
 C        -3.5135021909       -2.9587465190       -2.2918132607
 C        -3.2446974794       -3.1103059173       -3.8511849878
 C        -3.7202894802       -4.5418086716       -4.3266456658
 O        -3.3014984128       -5.4937564761       -3.6494750986
 C        -4.7944210227       -4.8111493886       -5.3145802703
 C        -4.1209044255       -4.5445665541       -6.8054312306
 O        -4.3367546269       -3.5121590809       -7.3498341983
 C        -3.1195787684       -5.5183238007       -7.3698631725
 C        -3.2136547466       -5.4482476992       -8.9297574841
 C        -1.7958155328       -5.5924364008       -9.5132907628
 O        -0.8350284805       -5.7743895926       -8.8823603568
 C        -1.8074763239       -5.3386176226      -11.1333522981
 C        -2.2322474516       -3.7578552566      -11.1685086244
 O        -1.5497930632       -2.9644686643      -10.5643162415
 C        -3.3409682883       -3.3708939705      -12.2510669887
 C        -3.6367308198       -1.9014749352      -12.0848610150
 C        -2.6471844359       -1.0974199245      -12.9100094325
 O        -2.1558126761       -1.3436721183      -14.0444186493
 C        -2.3641995204        0.4316582116      -12.4644480322
 C        -3.4192318845        1.4023596946      -13.2282084374
 O        -4.5943202150        1.2860314630      -12.9098269537
 C        -2.8086516757        2.4698136843      -14.1821099621
 C        -3.9097207377        3.2843747917      -14.7752158238
 C        -3.4904442615        4.1884951153      -16.0050658624
 O        -3.1816820915        3.7191185606      -17.1062289451
 C        -3.4822225661        5.6818607532      -15.6609166644
 C        -2.7467915232        6.4154188714      -16.9132006194
 O        -3.3429220410        6.4605453804      -18.0043629428
 C        -1.4053215127        7.1157858760      -16.7843226422
 C        -0.9627835672        7.7342159517      -18.1337389343
 C        -0.9209046878        6.7035076859      -19.2517062646
 O        -0.6705400398        5.5708315255      -18.8414306133
 C        -0.9578297264        7.1285862997      -20.6782021946
 C        -1.0822655657        5.8735555765      -21.7066095982
 O        -1.9282785805        5.0127355157      -21.5446884643
 C        -0.1582513535        5.7429658858      -22.8809244584
 C        -0.6992370920        4.6064024080      -23.9429975678
 C        -2.2283987314        4.6355591352      -24.0586554069
 O        -2.7404506373        5.7060409674      -24.4520175487
 C        -3.1555396039        3.3779837559      -24.1912719074
 C        -4.2422682295        3.4857663047      -22.8898915499
 O        -3.9255838421        2.8972935326      -21.8879622104
 C        -5.4190888030        4.5381183488      -23.0783603579
 C        -5.6966840674        5.5363682910      -21.9313733083
 C        -6.2327613749        4.8336421105      -20.6397454283
 O        -5.5184472670        4.7324602049      -19.6265257433
 C        -7.7090550166        4.3228254558      -20.4642765129
 C        -7.8698970060        3.2309602600      -19.2615105055
 O        -7.5801126240        2.0794381072      -19.5100033124
 C        -8.5181627230        3.6506510358      -17.9849837675
 C        -8.0144920750        2.9174359874      -16.7235297196
 C        -9.0170211563        3.1691703379      -15.5575407431
 O        -8.5777143279        3.5995684856      -14.5117199554
 C       -10.5545720858        2.6947840129      -15.5935456257
 C       -11.2725133841        4.0452196104      -16.0524045181
 O       -10.5523083596        4.9511035838      -16.4250778574
 C       -12.7154593923        4.0381526045      -15.7811566661
 C       -10.9469035589        1.5310898821      -16.5462654403
 C       -10.7585404610        2.3399275925      -14.0686946912
 C        -8.7332612254        5.5714944208      -20.3346688706
 C        -8.2655330261        3.5810101298      -21.7107584465
 C        -3.8385070109        3.3453356068      -25.5950775444
 C        -2.4377380584        2.0715786233      -24.1468884807
 C        -2.3385872126        7.8290183302      -20.9355912488
 C         0.2589552119        8.0586306973      -20.9072983605
 C        -4.9414160108        6.2612501970      -15.7543542330
 C        -2.9969654779        6.1860001860      -14.2750944952
 C        -2.4352996049        0.5648498213      -10.9327053182
 C        -0.8681344401        0.7053788337      -12.8331888684
 C        -0.4388900604       -5.4634325430      -11.7499280897
 C        -2.7988156808       -6.2472681248      -11.7150307863
 C        -5.4166705537       -6.3359894117       -5.2207565374
 C        -5.9312339930       -3.7714003614       -5.0898087673
 C        -3.6993032862       -3.0959336855        0.7530480166
 C        -1.2931369172       -1.8745288444        0.5143579492
 C         3.0196551624       -7.1430493056        2.1429306726
 C         3.7781841066       -7.4117088898       -0.3023388258
 C        -1.8025468834      -12.5095963476       -1.1638543250
 C        -3.6407226010      -11.2084141622       -0.1886976005
 C        -0.8431285202       -9.2563856439        5.3115474128
 C        -2.9571121554      -10.5444712783        6.1683928733
 H        -5.1090657257       -8.6479640810        5.6957966881
 H        -4.4914417705       -7.0061156113        5.5277537651
 H        -3.8107689925       -7.9781014228        6.7720829843
 H        -3.6939995210      -12.0613840246        4.0149993215
 H        -1.9778818568      -12.5393980516        4.3168754431
 H        -3.5550757385      -12.6135756439        1.8563193646
 H        -2.0793600919      -13.5481539547        2.1148007440
 H         0.1917779345      -10.7319009502       -1.8798687560
 H         0.3860066656      -10.9331262356       -0.1017119728
 H         0.4373649001       -8.1389496749       -1.4403751532
 H         1.8494521954       -9.1698673387       -1.3633431768
 H         0.7783364650       -4.2739540511        1.6743618341
 H         0.2032780058       -5.9015232437        1.7030861816
 H        -0.3505696475       -5.7182169250       -0.8991143969
 H         0.0009239371       -3.9759516360       -0.6826875546
 H        -4.0119369311       -2.0630863856       -2.1722281622
 H        -4.1917299891       -3.7531549159       -1.9046553696
 H        -2.1615367001       -3.0578190316       -3.9975042097
 H        -3.5685011141       -2.2245430746       -4.3300754969
 H        -3.1257235620       -6.5071465533       -6.8654150511
 H        -2.1525119341       -5.1506901147       -7.0462035733
 H        -3.4766477551       -4.3698641676       -9.0789065410
 H        -3.7749260419       -6.2796336822       -9.3853895683
 H        -4.2392289511       -4.0347237298      -11.9843320906
 H        -3.0112507946       -3.5042919047      -13.2984583962
 H        -3.6059218354       -1.6437801931      -11.0350407896
 H        -4.6324405526       -1.7068117509      -12.3462994900
 H        -2.1715734925        2.0719092566      -14.9234280587
 H        -2.1055237642        3.1734893528      -13.5859957183
 H        -4.4257933891        3.8342127352      -13.9458681155
 H        -4.6051870161        2.5512576604      -15.0795132785
 H        -0.7865161841        6.3241246468      -16.4787845575
 H        -1.5066712953        7.9722001755      -16.1024908215
 H         0.1013719744        7.8964488047      -17.9751868132
 H        -1.4553650675        8.6492098924      -18.2896952915
 H         0.7963832408        5.6078923747      -22.3973717006
 H        -0.0720123150        6.7463057339      -23.3469780213
 H        -0.1413512074        3.7776495637      -23.4584022007
 H        -0.4252661797        4.7316202774      -25.0031315250
 H        -6.2969337129        4.0208003048      -23.3529280504
 H        -4.9792456860        5.2352130999      -23.8503775881
 H        -6.4894489764        6.2279755004      -22.2487730146
 H        -4.8213093826        6.1007865451      -21.8055962609
 H        -9.5464303086        3.3247897900      -17.9304805793
 H        -8.5613782712        4.7949476340      -17.8603894121
 H        -6.9300514919        3.2244648776      -16.5263054043
 H        -8.0079834936        1.8712051986      -16.9516133488
 H       -12.9622244729        3.6367123160      -14.7593292267
 H       -13.0620355237        3.2415009940      -16.5129711950
 H       -13.3198854525        4.8658584383      -16.1793568486
 H       -11.2011220243        1.8617104598      -17.5765314772
 H       -11.9125466088        1.0891408458      -16.0854859114
 H       -10.1548597813        0.7907448255      -16.5587154889
 H       -10.1801914685        1.5866612236      -13.5666475907
 H       -11.8363121010        1.9723250665      -13.9100882006
 H       -10.8148396489        3.2269179425      -13.3869466330
 H        -8.6524854229        6.2239238541      -19.5320615458
 H        -9.7954674668        5.2364343112      -20.3706168265
 H        -8.7058491358        6.2033837748      -21.1523437019
 H        -7.5459935906        2.7906202847      -22.0260203396
 H        -8.4656111726        4.1234067439      -22.6088459792
 H        -9.2418953799        3.2240074893      -21.3804552407
 H        -4.5459502443        2.5582358136      -25.5535413580
 H        -3.1192051149        3.3297164559      -26.3542235603
 H        -4.4528144343        4.1936093790      -25.7781672003
 H        -1.8338352212        1.9724293704      -25.0285275331
 H        -3.2655824804        1.3345917921      -24.2818536788
 H        -1.8488592656        1.8263383737      -23.2722173888
 H        -2.5142601632        8.7909043819      -20.4422138813
 H        -3.1153196541        7.0728866378      -20.6461015775
 H        -2.5826016503        8.0078699396      -22.0524440535
 H         0.9500252711        7.8621723279      -21.7106609434
 H         0.9483182645        8.0472485025      -19.9957782639
 H        -0.1515518712        9.0296467575      -20.9640348912
 H        -5.4515296355        6.2142182552      -16.7075420213
 H        -5.0502192480        7.3074110776      -15.4895618211
 H        -5.5385599613        5.6854968494      -15.0595580227
 H        -1.9765417479        5.8918943684      -14.0976542372
 H        -3.6323972617        5.8232939673      -13.3923362965
 H        -2.9862228044        7.3104647063      -14.4078169005
 H        -2.0576402046       -0.1945776272      -10.3284226094
 H        -3.4686287977        0.7929073670      -10.6996755206
 H        -1.9041842567        1.3952965557      -10.5357098731
 H        -0.7001317388        0.2272090729      -13.7498225136
 H        -0.3239351136        0.1938809045      -12.0375879182
 H        -0.5410112172        1.7119768743      -12.6214978536
 H         0.1591313540       -4.6058592181      -11.4401571754
 H        -0.4287995469       -5.5096367689      -12.8011401850
 H        -0.1050558177       -6.3950927302      -11.3233768891
 H        -2.8160792603       -6.2665834235      -12.7584380311
 H        -3.8128800215       -6.0980764865      -11.3784624764
 H        -2.4919407335       -7.2569022571      -11.4865348140
 H        -5.4514814163       -6.8258612813       -6.1647284799
 H        -6.4481547367       -6.2956753492       -4.8354175726
 H        -4.8677888987       -7.0645223755       -4.6310106497
 H        -6.9479809435       -4.2793345344       -5.1209481137
 H        -6.0228376045       -3.0434554089       -5.8763887969
 H        -5.9559009297       -3.2347354287       -4.1386543617
 H        -3.6407935146       -3.3550761664        1.7917765656
 H        -4.4053498751       -3.8123185740        0.2355591840
 H        -4.3049777590       -2.1280985326        0.7054014596
 H        -1.7715199345       -1.0115185167        0.1343449773
 H        -0.3921577524       -2.0687599051        0.0293835634
 H        -0.9523430111       -1.8870157507        1.5909126785
 H         3.7388398142       -7.9153042660        2.3155827153
 H         2.0936486075       -7.2837341733        2.7083760603
 H         3.2408208970       -6.1134447324        2.4835694277
 H         4.4303301737       -6.5819470563       -0.1111505236
 H         3.4867197902       -7.3408549451       -1.3463481644
 H         4.3221467705       -8.3508119622       -0.1501840762
 H        -2.0795524315      -12.2709290165       -2.1543055940
 H        -2.2579720182      -13.4222276340       -0.8584624044
 H        -0.7156600264      -12.7326628389       -1.3098109140
 H        -4.1185945407      -10.6496960026       -1.0215302099
 H        -3.8661396340      -10.5413465653        0.6836997310
 H        -4.1729489567      -12.1253397982        0.0298714863
 H        -0.1267789800       -9.5353102290        4.5795198515
 H        -0.5204356112       -9.5084586072        6.2994248667
 H        -0.9500194254       -8.1811891199        5.3642078083
 H        -2.3004824579      -11.2991446468        6.6523525587
 H        -3.8008285681      -11.0571278625        5.8175730607
 H        -3.2885949978       -9.8296972857        6.9353408052
 Na       -1.7660974106       -7.4597596436        1.7995558989
 Na       -3.0859913790        4.5222285294      -19.5079454684
