232

 C       -18.9708956189      -12.2360445647       -0.0549412140
 C       -17.8554314421      -12.4458080091       -1.0440818953
 O       -17.6655513369      -11.7503213316       -2.0112195052
 C       -16.8484900828      -13.7507827851       -0.8728716767
 C       -15.4624557607      -13.4531827297       -1.4763806806
 O       -15.2583647366      -13.7165669059       -2.6844070782
 C       -14.3082486783      -12.9009215284       -0.5822888074
 C       -12.9565388643      -12.5678249055       -1.2773401551
 C       -13.2303994675      -11.5641820722       -2.4250506538
 O       -14.1247731799      -10.7543098197       -2.2485629436
 C       -12.2897590029      -11.4794063703       -3.6571240201
 C       -13.2797548926      -11.4832036145       -4.9541238713
 O       -14.0064909948      -12.3673662953       -5.1780211908
 C       -13.3146641154      -10.0830723977       -5.7515030597
 C       -14.6096911593      -10.0292988795       -6.5861141497
 C       -15.7903648429       -9.3493506850       -5.8699834537
 O       -16.3764556198      -10.0316651321       -5.0340648757
 C       -16.2697359904       -7.8772898242       -6.2035954112
 C       -14.9983529880       -6.9788418381       -6.5782869191
 O       -13.9483449439       -7.1654766099       -6.0424800427
 C       -15.1052634261       -5.8711955722       -7.7042544617
 C       -13.9375765322       -6.0675188153       -8.7207053860
 C       -13.9974087361       -5.0739834144       -9.8719561396
 O       -15.0192888943       -4.7109627173      -10.3791687818
 C       -12.6689393484       -4.5165030704      -10.4265982977
 C       -12.0365160732       -3.6103537011       -9.3424599725
 O       -12.4768106270       -3.7910127897       -8.2215635347
 C       -11.0556837631       -2.4274070185       -9.6684571330
 C       -10.4605018706       -1.9208910973       -8.3639286116
 C       -10.4054590144       -0.4037488945       -8.3642456769
 O       -10.8659974115        0.1761182367       -9.3219641641
 C        -9.6404887821        0.4406558702       -7.2910504723
 C        -8.2358359239        0.2697020008       -7.9601607663
 O        -7.4615957566       -0.6449665397       -7.6894711264
 C        -7.6668894731        1.4031478955       -9.0851266603
 C        -6.5468236643        0.6072166565       -9.8921766528
 C        -5.7008795222        1.5848726800      -10.5962819286
 O        -5.7425410603        2.7484435619      -10.2493351400
 C        -4.6269946585        1.1751727291      -11.7300387882
 C        -3.4546180546        0.6160998899      -10.8247167301
 O        -3.3644988419       -0.5222061869      -10.3693254141
 C        -2.3472421273        1.6064378442      -10.4273053568
 C        -1.2497525486        0.9280484525       -9.6127131971
 C        -0.1268485900        1.8658392048       -9.1706080260
 O        -0.3025070572        2.9770936233       -8.7296372068
 C         1.4325580346        1.2369441334       -9.0208919387
 C         2.4750716544        2.4064489972       -9.0244560786
 O         3.2429536874        2.5172457078       -9.9630321927
 C         2.5066110611        3.4027598673       -7.9116179116
 C         3.7339494216        4.3808580953       -7.9997913875
 C         3.7554019345        5.0446377684       -9.4635604212
 O         2.8189230335        5.6593638388       -9.9325188113
 C         5.0479294284        5.0376250217      -10.3515886342
 C         4.8168587734        4.5607595221      -11.8335139377
 O         5.5986169457        3.8050402455      -12.3115695629
 C         3.5585849044        4.9213058189      -12.4647302918
 C         3.4618918203        6.2009530012      -13.3642831477
 C         3.6471046166        5.8917665631      -14.8442338594
 O         3.6770589633        4.7334377336      -15.2184194144
 C         3.7067791745        7.0277832167      -15.8185153270
 C         5.0831614384        6.8086852660      -16.6899803350
 O         5.1769330143        6.3992955346      -17.8099719750
 C         6.4567984003        7.2465323853      -15.9759114803
 C         7.5972571154        6.4500774804      -16.6545709896
 C         7.2841035672        4.9071040333      -16.7351727651
 O         6.2709453473        4.5004344287      -16.2575008354
 C         8.2578191590        4.0537891887      -17.6075046289
 C         9.5973194436        4.0533128534      -16.6680300132
 O         9.4862291475        4.3860929000      -15.5335826364
 C        10.9420405259        3.6115787636      -17.1401895893
 C        11.5352422803        2.2889644261      -16.5080952601
 C        10.9326944616        1.0765758232      -17.1012665482
 O        10.3156699188        1.0204526205      -18.1221105128
 C        11.1416557383       -0.1755167285      -16.3207420601
 C        11.1119326859        0.1935678027      -14.7910459935
 O        11.9647790637       -0.0021633458      -13.9743151582
 C         9.8068114639        0.8435928803      -14.2479788916
 C         8.6784928929       -0.0872540425      -13.8161125428
 C         7.2971555666        0.5787992931      -13.8531535483
 O         7.0889006554        1.5551445343      -14.5432003176
 C         6.1401067395       -0.0123573063      -13.0255573896
 C         5.0022989985       -0.1458175629      -14.0863908374
 O         4.3296537544        0.8154344311      -14.3922193869
 C         4.8377452474       -1.4267677890      -14.8801199215
 C         6.5124834748       -1.3954037670      -12.3553572916
 C         5.7161569518        0.9825144725      -11.8854695175
 C        10.0310896650       -1.3136426515      -16.6088811818
 C        12.5280511603       -0.7349696911      -16.5686145464
 C         7.6309423665        2.7310914177      -17.5299010807
 C         8.4927826486        4.6189609631      -19.0118619762
 C         2.4452277621        6.7895058696      -16.7119835709
 C         3.6851203983        8.4563962471      -15.2272118188
 C         5.4154166332        6.5340098283      -10.3255236699
 C         6.2263777648        4.1907081421       -9.7766930689
 C         1.4027094241        0.5442728616       -7.6360513044
 C         1.9285203185        0.2569978949      -10.1338420193
 C        -5.0913534957       -0.0668783115      -12.6108663739
 C        -4.3608123137        2.3827755167      -12.6196976850
 C       -10.2503138183        1.8315635505       -7.1583272460
 C        -9.7617864444       -0.2039764149       -5.9066208285
 C       -11.6523550849       -5.7076884886      -10.7930618768
 C       -13.0797434170       -3.9057149517      -11.8733832222
 C       -17.3242123703       -7.9098957254       -7.3275810195
 C       -16.9071689225       -7.3223924268       -4.8916898172
 C       -11.3356142079      -10.2558773168       -3.5752648627
 C       -11.3934457216      -12.8019214651       -3.7617886812
 C       -16.5921559197      -14.1555683610        0.6209750477
 C       -17.5974649111      -14.8603555438       -1.6218850864
 H       -18.6292608024      -12.1697948355        0.9630679970
 H       -19.5465849542      -13.1763388965       -0.1706003878
 H       -19.6061622360      -11.4063646187       -0.3585141274
 H       -14.0476398199      -13.7079519452        0.0839183981
 H       -14.5149453726      -12.0829117139        0.1242890017
 H       -12.5029886699      -13.5102861577       -1.5160354236
 H       -12.3627995833      -12.1796183725       -0.4959212163
 H       -12.4146262043      -10.0917674941       -6.3369587616
 H       -13.3490342679       -9.2262254581       -5.0548040221
 H       -15.0501976170      -10.9963648983       -6.6728392844
 H       -14.4107258143       -9.6715605441       -7.6216214788
 H       -15.2719273448       -4.8418974988       -7.3103552253
 H       -15.9707031457       -6.1234494051       -8.2656688334
 H       -14.0518685365       -7.0478965716       -9.1079530721
 H       -12.9156769848       -6.0271915196       -8.2438550433
 H       -11.7090045441       -1.6867818085      -10.1893220031
 H       -10.2595407100       -2.8802293742      -10.2764981477
 H        -9.3795776547       -2.3494219074       -8.3065160810
 H       -10.9625828087       -2.2492650774       -7.4795477563
 H        -7.2879680957        2.2625894464       -8.4857042540
 H        -8.5830673039        1.7761558445       -9.6393709804
 H        -6.9679963724        0.0055457544      -10.6364060447
 H        -6.1058636492       -0.0799979905       -9.1407300707
 H        -2.7912736021        2.4315182912       -9.8969037622
 H        -1.9073333576        1.9590245649      -11.4001872089
 H        -0.6576503189        0.0921056674       -9.9734984172
 H        -1.5392857317        0.5051313094       -8.6231464548
 H         2.4285736421        2.8559775442       -6.9400784430
 H         1.5247721380        4.0395231862       -8.0302456865
 H         4.7315580357        3.9501986242       -7.8997115822
 H         3.7610349794        5.1130063836       -7.2294462510
 H         2.7503192761        4.9017323277      -11.7428695903
 H         3.4242644189        4.0762881518      -13.2452858364
 H         4.0856303554        6.9733891434      -13.0383147015
 H         2.4287181242        6.5557909026      -13.4254994331
 H         6.3578707433        7.0651744686      -14.8826945649
 H         6.6893011312        8.3405570397      -16.0782773813
 H         8.5809592535        6.5704663063      -16.0572853163
 H         7.7239875953        6.9181215129      -17.5768292284
 H        11.7346405918        4.3056513069      -16.8497942844
 H        10.9492167113        3.5807447187      -18.2762387264
 H        11.4449253435        2.3417378211      -15.3949479031
 H        12.5145121934        2.2770662554      -16.7898812629
 H         9.4662259990        1.6098005858      -14.9330578518
 H        10.0317984154        1.3590186967      -13.2742059427
 H         8.9942004285       -0.3689827195      -12.8236547346
 H         8.5628476364       -1.0284598359      -14.4563257372
 H         5.1126550778       -2.3816864254      -14.4678030585
 H         5.4386677664       -1.2477774369      -15.8910234925
 H         3.8006363642       -1.6284767707      -15.1957726914
 H         5.5919202196       -1.8947707659      -11.9666189970
 H         7.2045512488       -1.2591432405      -11.5485408682
 H         6.9583616134       -1.9478237242      -13.1688302387
 H         6.6071814765        1.5704769483      -11.4434736295
 H         5.2707762872        0.3813458382      -11.0875780344
 H         4.9006053959        1.6611862278      -12.0988598022
 H        10.2799045099       -1.6510948942      -17.5980660761
 H         9.0213979904       -1.0464181079      -16.3557968646
 H        10.3744125218       -2.0744391139      -15.9857663519
 H        12.6432302677       -1.0231540015      -17.6215330302
 H        12.7376484653       -1.6566095221      -16.0420030456
 H        13.3114383635       -0.1217622259      -16.1824185976
 H         7.2805245410        2.3766883218      -16.5287576131
 H         8.3044073684        1.9819432739      -18.0122269808
 H         6.6425993390        2.6301271574      -18.0999900299
 H         8.9098830226        5.6055533711      -18.8501591864
 H         7.6677400522        4.4144497706      -19.6037787113
 H         9.2281390890        3.9013963274      -19.4258432541
 H         1.4794603810        7.0908743490      -16.3772139485
 H         2.2026609023        5.6906284861      -16.7558854186
 H         2.6735973217        7.2474995490      -17.6428670235
 H         3.6641171361        9.0792773678      -16.1196792921
 H         4.5878232217        8.6714220721      -14.6486963616
 H         2.7597647286        8.8016554566      -14.7015265813
 H         5.8631355532        7.0051788404       -9.4293343822
 H         4.7168232487        7.2753224990      -10.5543196127
 H         6.1486654262        6.7604915500      -11.1525834242
 H         7.0118373880        4.0497567172      -10.5264059110
 H         6.0701604498        3.1135959947       -9.5710005183
 H         6.5457392054        4.4513214076       -8.7040645242
 H         0.6645576064        0.9565984604       -6.9466815830
 H         2.3477154092        0.5334612815       -7.1835717282
 H         1.1279174749       -0.4539501220       -7.8291869237
 H         1.2763767395       -0.5794317660      -10.4185391793
 H         2.8507887085       -0.3123403897       -9.8498720956
 H         1.9750125662        0.8405046102      -11.0553025888
 H        -5.3848652995       -0.9460993485      -11.9737758783
 H        -4.4585009044       -0.4716269123      -13.3982103387
 H        -6.0325507281        0.3693146071      -13.1313088379
 H        -3.4454950756        2.2387909755      -13.1396446483
 H        -4.3621718271        3.2838688310      -11.9790738735
 H        -5.1184771825        2.5721716192      -13.4049542710
 H       -11.2073342286        1.5853329740       -6.6377664812
 H       -10.3519021997        2.3568250604       -8.0827349903
 H        -9.8427551696        2.5925548501       -6.5450287134
 H        -9.7402686391        0.4519627169       -5.0571668814
 H        -8.9472503623       -0.9434506816       -5.8277915086
 H       -10.6678062328       -0.8344757081       -5.8674974378
 H       -10.6552944067       -5.3738953257      -11.0690819508
 H       -12.0229544561       -6.3550394175      -11.5155165470
 H       -11.4799813771       -6.3658621365       -9.9614086855
 H       -13.3780962129       -4.6572404135      -12.6116011176
 H       -12.2428080725       -3.3149579530      -12.2112064405
 H       -14.0679132289       -3.3371539728      -11.7564761610
 H       -16.8305475509       -8.2913901323       -8.2617626774
 H       -17.8411387852       -6.9219619001       -7.4263273228
 H       -18.1408181167       -8.5762722819       -7.2632414880
 H       -16.0915864712       -7.4038995413       -4.1153793709
 H       -17.8292555236       -7.8326038837       -4.7816605416
 H       -17.1538800456       -6.3307370665       -5.0694466323
 H       -11.8880965074       -9.3865097908       -3.2821793230
 H       -10.8881776059      -10.2281030844       -4.5973157033
 H       -10.5937289683      -10.4596206492       -2.7502141858
 H       -12.0927147348      -13.5807052024       -3.8065707276
 H       -10.8556019489      -12.8904977821       -2.8559588680
 H       -10.8142380254      -12.7566857813       -4.6537973310
 H       -16.5217341742      -13.2349466567        1.3174170439
 H       -15.6668643358      -14.7897520350        0.7407486016
 H       -17.4151121465      -14.6427919160        1.0453622542
 H       -17.7629007288      -15.6738725513       -0.8912852119
 H       -17.1037682950      -15.3032232563       -2.5116461629
 H       -18.5656361802      -14.4974583790       -1.9189191316
 Na      -15.9933584259      -11.6192406623       -3.6864382679
 Na        4.9662511916        2.9787762758      -14.5170023280
