232

 C        -3.7847287688       -7.3335083704        5.4550944716
 C        -2.6167538478       -7.9532033342        4.8018182875
 O        -2.0601379975       -7.4182437577        3.8918056425
 C        -2.1103669510       -9.4580125457        5.1037912468
 C        -2.6246912797      -10.3386336334        3.7838687418
 O        -3.1571947114       -9.8390653628        2.8330911718
 C        -2.3844175368      -11.8205413168        3.8688392025
 C        -2.3475672734      -12.5549917151        2.4625540743
 C        -1.3337161345      -12.0715232665        1.4331357063
 O        -0.1621536087      -12.0944886082        1.7046415450
 C        -1.8369853963      -11.7659770984       -0.1154037970
 C        -1.3095014121      -10.1964375803       -0.2593319773
 O        -2.0535401956       -9.2765844526        0.0747202235
 C         0.0983041561      -10.1472343429       -0.6501953630
 C         0.7064343421       -8.7819861078       -0.9982709856
 C         1.1378175358       -8.0355702543        0.2374222163
 O         0.2959326478       -7.8400904728        1.1224256385
 C         2.4521070621       -7.2291494520        0.3205717537
 C         2.0916601829       -5.7282111625       -0.0101645425
 O         2.7978171021       -5.0836851729       -0.6778754367
 C         0.9551102237       -5.2526516080        0.7577434821
 C        -0.2791490563       -5.3861159243       -0.1470405170
 C        -1.6576279568       -4.8858363355        0.4159875840
 O        -2.4496964093       -5.6770973493        0.8604395128
 C        -2.2140824923       -3.4103096848        0.1997725706
 C        -2.3137358652       -3.1458243977       -1.3986656076
 O        -1.3121975552       -2.6988558652       -1.9095070562
 C        -3.5430850254       -3.3661070620       -2.2863748825
 C        -3.0189588538       -3.3660298826       -3.6740289450
 C        -3.3844675750       -4.6571875968       -4.4354728615
 O        -2.8078618310       -5.6578196840       -4.3641968068
 C        -4.6546623924       -4.7187625494       -5.3969065219
 C        -4.2986522800       -4.2725034184       -6.8134145371
 O        -4.6246282351       -3.1845780360       -7.2809793713
 C        -3.3924183854       -5.2176042139       -7.5761461215
 C        -3.4832281461       -5.1450133027       -9.1213221769
 C        -1.9466842756       -5.3202613180       -9.7544666182
 O        -1.0154906218       -5.6420459824       -9.0602638723
 C        -1.8711314043       -4.9641257825      -11.2703786199
 C        -2.2498980200       -3.4429026812      -11.5712055291
 O        -1.5018673085       -2.5988070493      -11.1950336025
 C        -3.4761535049       -3.1330405125      -12.4659263603
 C        -3.6952770099       -1.6314048464      -12.4460017647
 C        -2.4394115144       -0.8752283495      -12.9447107228
 O        -1.7344210079       -1.3507006138      -13.7847566296
 C        -2.2637270058        0.6737437462      -12.5512077717
 C        -3.3334603103        1.5687414853      -13.3179298327
 O        -4.3295437293        1.7794713472      -12.6071024468
 C        -3.1340532792        2.1454788619      -14.7862414444
 C        -4.0842893415        3.3539729708      -14.9697384422
 C        -3.8424130674        4.2777219509      -16.1283890918
 O        -3.5655137754        3.8150528687      -17.2332083761
 C        -3.9110109506        5.8011131292      -15.9032288531
 C        -3.2649583161        6.4782353116      -17.1394986807
 O        -3.7444121888        6.4671498073      -18.2441796060
 C        -1.9677720442        7.3951221000      -16.8486491864
 C        -1.4109660095        7.8529597468      -18.1763760653
 C        -1.2239021077        6.6749040080      -19.1308359633
 O        -1.3697212937        5.5046496115      -18.7758902564
 C        -1.0697416649        7.0029661430      -20.6341444416
 C        -0.7883795902        5.6994223793      -21.4856628145
 O        -1.3630854775        4.6742273666      -21.2332704917
 C        -0.1555425857        5.6629990354      -22.9384785415
 C        -0.6170256662        4.3921216149      -23.7250209603
 C        -2.1601198753        4.5031341929      -23.8497174294
 O        -2.6783140136        5.5998918534      -23.9282233936
 C        -3.1893124861        3.2965454235      -23.8865047853
 C        -4.0540659530        3.6915834908      -22.6178239642
 O        -3.6605061709        3.5213818592      -21.4800617323
 C        -5.1832059891        4.6554587113      -22.9855985502
 C        -5.6874456874        5.3927508093      -21.7028564829
 C        -6.3145824451        4.4572609292      -20.6144980167
 O        -5.6111985465        3.9622849532      -19.7708207779
 C        -7.8601607653        4.3535441125      -20.5088407590
 C        -8.1141634601        3.3668447994      -19.2561086546
 O        -7.7835607822        2.1953300436      -19.3621379021
 C        -8.5555718558        3.8667739176      -17.8942680012
 C        -8.1856988097        2.8153703801      -16.8802866198
 C        -8.8172632833        2.9390644449      -15.4852318861
 O        -8.1518500422        2.9650788566      -14.5295785699
 C       -10.3963719120        2.7189346588      -15.2861887551
 C       -11.1015447557        4.1445244691      -15.6756144028
 O       -10.6338900060        5.0680679650      -15.0751706240
 C       -12.2633890407        4.3833548597      -16.5750914092
 C       -10.9980547164        1.4952845364      -16.0656596762
 C       -10.7943846711        2.5794601046      -13.8093004238
 C        -8.6099774702        5.6723034418      -20.4344585964
 C        -8.2106405903        3.5146012138      -21.7793047115
 C        -4.0126590087        3.2724604639      -25.1869365245
 C        -2.4508318216        1.8626084758      -23.5291461351
 C        -2.3447034476        7.5945267271      -21.3307432619
 C         0.1288766568        8.0462694425      -20.7740609684
 C        -5.5520748585        6.0700275944      -15.8840103053
 C        -3.1405748460        6.2142794409      -14.6474917280
 C        -2.4885805275        0.8152239694      -11.0925526037
 C        -0.8471606034        1.1506450993      -13.0238338674
 C        -0.3661407004       -5.1377009825      -11.6339447028
 C        -2.6301752293       -6.0282620026      -12.1182255054
 C        -5.3239225959       -6.1222717393       -5.2067286608
 C        -5.7876496080       -3.6736216112       -4.9836603024
 C        -3.5226350483       -3.3095109153        1.0139886776
 C        -1.1117587835       -2.3379322777        0.7377540294
 C         3.2359975028       -7.3205730477        1.6323922687
 C         3.3463936569       -7.5644026832       -0.8591570507
 C        -1.1562906102      -12.7989308414       -1.0673129199
 C        -3.3721761023      -11.6759986106       -0.3505851471
 C        -0.5501367833       -9.3861954911        5.2547878462
 C        -2.7926739518      -10.0643188634        6.2997139003
 H        -4.7176926455       -7.9210760400        5.2561130200
 H        -3.7342818066       -6.3463674385        5.0448103761
 H        -3.7287170615       -7.3800447089        6.5919228150
 H        -3.1148356022      -12.2784905338        4.5359872013
 H        -1.3996935928      -12.0179127296        4.3338895073
 H        -3.4779267256      -12.5681288374        2.1903905823
 H        -1.9810118000      -13.5821506335        2.6910948211
 H         0.1709267497      -10.7789114353       -1.4939552471
 H         0.6715086215      -10.6951893935        0.0339129904
 H        -0.1188830681       -8.1990479692       -1.4465594774
 H         1.5560176884       -8.9376682503       -1.8159550395
 H         1.1597839091       -4.1899660425        0.9796293336
 H         0.9122493966       -5.8697357588        1.6670606849
 H        -0.4572837665       -6.4274273011       -0.3967586074
 H        -0.0989937428       -4.7560492117       -1.0411564512
 H        -4.4639782459       -2.7117156760       -1.9710928382
 H        -3.9073426552       -4.3449611056       -2.0124683596
 H        -1.9993977451       -3.3839538946       -3.6343628925
 H        -3.4125259587       -2.4651043145       -4.1909464227
 H        -3.4954258427       -6.2227576616       -7.1288215164
 H        -2.3034427419       -4.9867551041       -7.4336789281
 H        -3.9413992320       -4.2171653617       -9.4969141911
 H        -3.9036421743       -6.1096226644       -9.4984472850
 H        -4.2890251774       -3.7201441848      -12.1336679914
 H        -3.1004578999       -3.4236536335      -13.5027210857
 H        -3.8588042261       -1.4760176484      -11.3741363182
 H        -4.6484117076       -1.4170146738      -12.9829238391
 H        -3.1583744873        1.3357149856      -15.5701872901
 H        -2.1434479296        2.4836265667      -15.0051383145
 H        -4.0915003894        3.8821917483      -13.9758519885
 H        -5.1196403218        3.0164693299      -15.0451474191
 H        -1.3095349030        6.6275503191      -16.3645546175
 H        -2.1343793359        8.1543637580      -16.1004046103
 H        -0.5329442318        8.4150383242      -17.9436095990
 H        -2.0768774538        8.5487555544      -18.7577265621
 H         0.8540029537        5.8165460925      -23.0231383109
 H        -0.5395679145        6.5017264465      -23.4791701816
 H        -0.0791282747        3.5504197143      -23.3489959820
 H        -0.2227594132        4.4637557286      -24.7752238029
 H        -6.1310199877        4.2462334275      -23.4558564776
 H        -4.7466980708        5.4328157254      -23.6675785044
 H        -6.2637363152        6.1992933382      -22.0071887665
 H        -4.7518664797        5.8161447104      -21.2851388600
 H        -9.6627861441        4.0947536886      -17.9927120689
 H        -8.1039482785        4.7984087145      -17.6027867109
 H        -7.1260750967        2.7864416651      -16.9502576673
 H        -8.3926391492        1.7624147905      -17.3341762847
 H       -13.0947973652        3.7365374683      -16.2378200942
 H       -12.1446925008        4.1009160397      -17.6093700385
 H       -12.5648010949        5.4982313112      -16.4613948156
 H       -10.7095666095        1.4555689681      -17.1080748518
 H       -12.0337279869        1.5537337624      -15.8792652929
 H       -10.6948056696        0.5447223969      -15.4856296561
 H       -10.2848210687        1.8247915218      -13.2466937840
 H       -11.8467294453        2.3486042264      -13.5501310402
 H       -10.5120655088        3.4918562646      -13.2316999944
 H        -8.4819586958        6.1653600877      -19.4615648900
 H        -9.6389864539        5.6215244235      -20.4373590323
 H        -8.2959440537        6.3857708204      -21.1813112666
 H        -7.4865444598        2.6912028018      -21.9774954247
 H        -8.1852012528        4.2186209855      -22.5695677238
 H        -9.1239121333        2.9701440352      -21.7838805336
 H        -4.5339975106        2.3907536334      -25.1795896586
 H        -3.4310523733        3.1698340419      -26.0566237977
 H        -4.6635126573        4.0855504359      -25.2163213362
 H        -1.6795426886        1.4283818748      -24.1820405031
 H        -3.2941025594        1.1140857583      -23.5359228615
 H        -2.1766787780        1.8611845861      -22.4975082730
 H        -2.6562631256        8.5399092723      -20.9301946044
 H        -3.2944776631        7.0389368432      -20.9904058700
 H        -2.1760283515        7.8440248237      -22.4546254901
 H         0.0085417576        8.7083939907      -21.6813397521
 H         1.0623449192        7.5316294975      -20.9003138031
 H         0.3712560343        8.6245403376      -19.8783954466
 H        -6.0578187707        5.2481893901      -16.4545401490
 H        -5.8569166131        6.9948504708      -16.3033147776
 H        -5.9551003447        5.9078909280      -14.8812152694
 H        -2.2998842448        5.6210579784      -14.6811683724
 H        -3.8083739463        5.9544560215      -13.7732789660
 H        -2.9125989607        7.3101717987      -14.4778012383
 H        -1.9652196859       -0.0620020000      -10.6871096523
 H        -3.4253861084        0.6712540269      -10.6600885518
 H        -2.0298157360        1.7116070829      -10.6676647282
 H        -0.7348857825        0.7586805506      -14.0317687573
 H        -0.0332806369        0.7852864418      -12.4242956619
 H        -0.9509421739        2.2317926584      -13.1262473695
 H         0.1628393019       -4.4909174446      -10.8217572648
 H        -0.2338329036       -4.8452309027      -12.6382243464
 H        -0.0146249496       -6.2244127764      -11.5017529817
 H        -2.4549544517       -5.8314761557      -13.1977899112
 H        -3.6597796336       -6.0181910675      -11.9726692114
 H        -2.2918102204       -6.9903819918      -11.8123203346
 H        -6.2704411405       -5.8748807155       -4.6522049156
 H        -4.7581138851       -6.7944776231       -4.5763912452
 H        -5.5794607365       -6.6647317176       -6.1260571695
 H        -6.5340672746       -3.5488497755       -5.7916720647
 H        -5.4322833949       -2.6519669805       -4.6958385783
 H        -6.3202897583       -3.8959108802       -4.0844784730
 H        -3.6004004781       -3.9859125375        1.8344737622
 H        -4.3841711989       -3.6137079292        0.3311198136
 H        -3.8481789242       -2.3065467221        1.3597049677
 H        -1.6492588421       -1.3404214388        0.6333759121
 H        -0.1493791488       -2.3583673236        0.1831725185
 H        -1.0751310458       -2.3755984858        1.8540872528
 H         2.8232697798       -8.1965667626        2.2619788777
 H         3.0674100623       -6.4197117734        2.1638605451
 H         4.2715001959       -7.4564395929        1.3323388097
 H         4.1900940304       -6.9086415820       -0.7913496727
 H         2.8160234049       -7.4107838289       -1.8350395496
 H         3.7719265459       -8.5714921407       -0.7464906366
 H        -0.7536292777      -12.3896503694       -1.9564589073
 H        -1.8239759832      -13.5696326179       -1.4316024604
 H        -0.3610459342      -13.2937840144       -0.5580176732
 H        -3.5904317998      -11.3612317740       -1.3685619069
 H        -3.7557710756      -10.8586343004        0.2927496537
 H        -4.0173007417      -12.5732582987       -0.1581438360
 H        -0.2968421210       -8.4448659661        5.6874372986
 H         0.0696545897       -9.6793925760        4.4304471034
 H        -0.2317714377      -10.0641501600        5.9731329846
 H        -2.1240179463      -10.7277659196        6.8390533707
 H        -3.6937890921      -10.5533990765        5.8841985379
 H        -3.1577659241       -9.3261000605        7.0477196443
 Na       -2.0837488725       -7.6575850876        1.7382972376
 Na       -3.2019420963        4.4671509321      -19.4828782738
