232

 C        -3.5737899035       -6.9931689779        5.5611267356
 C        -2.3652660961       -7.7684186280        4.8340810597
 O        -1.7540587286       -7.1900161228        3.9655472617
 C        -1.9998612365       -9.2464061989        5.0136671035
 C        -2.5011505401      -10.2100662762        3.7611521604
 O        -2.9582778836       -9.7836549191        2.7479066622
 C        -2.2677827272      -11.6795868912        3.9306255613
 C        -2.5986556463      -12.4321722525        2.6094166799
 C        -1.4348153026      -12.2162169611        1.5577136045
 O        -0.3203804058      -12.1176518633        1.9942316069
 C        -1.8155828475      -11.9928558464       -0.0587958970
 C        -1.3300841694      -10.5591929370       -0.3603480243
 O        -2.0232458332       -9.5992473185       -0.0151281004
 C         0.1164958659      -10.3055982433       -0.6589204163
 C         0.4147867456       -8.8409982538       -0.9197108977
 C         1.1486456912       -8.1232667979        0.2882207231
 O         0.5671624560       -8.0748303892        1.3687995545
 C         2.5514284924       -7.2829168290        0.1105600665
 C         2.1098586777       -5.7261849999       -0.1229592598
 O         2.7455661563       -5.2238092618       -1.0038384892
 C         0.9068445114       -5.2601254973        0.6452382232
 C        -0.1979059811       -4.9914523135       -0.3069866963
 C        -1.6755039090       -4.8126279400        0.3030825460
 O        -2.2771363751       -5.8479590753        0.5149089393
 C        -2.2603921122       -3.3555286578        0.2826375058
 C        -2.2065616851       -3.0033250948       -1.2705380051
 O        -1.2320040411       -2.4963831909       -1.7151694280
 C        -3.2399984569       -3.6669413865       -2.1605080197
 C        -2.9399059137       -3.5225842395       -3.6505121345
 C        -3.4373662610       -4.7468285912       -4.4674254128
 O        -2.7777186061       -5.7070964015       -4.5953244285
 C        -4.7940186288       -4.6289125060       -5.3862769134
 C        -4.3630657842       -4.1808950190       -6.8866949246
 O        -4.8944766178       -3.1773358522       -7.3195482162
 C        -3.3516304862       -5.1419824410       -7.6790394295
 C        -3.3388728845       -4.6024637220       -9.1785951347
 C        -2.0277676348       -5.0669816266       -9.8543023101
 O        -1.1472512970       -5.5980664982       -9.2064329695
 C        -1.8338043944       -4.7708630638      -11.3562112302
 C        -2.2172909366       -3.1650688773      -11.5802282540
 O        -1.5861989460       -2.3658555285      -10.9590391018
 C        -3.3196292652       -2.8920102105      -12.4913914688
 C        -3.6326252185       -1.3748799002      -12.6686379778
 C        -2.4547089285       -0.6316391200      -13.2545193413
 O        -1.8664920868       -0.9322906640      -14.2241984828
 C        -2.1442471197        0.7877094135      -12.6591500389
 C        -3.2743749709        1.5770237689      -13.3353139119
 O        -4.3374331926        1.7274312644      -12.7417560057
 C        -3.2106171030        2.1600911267      -14.7127166444
 C        -4.4200885573        3.0520497447      -15.1585027984
 C        -3.9518474501        4.0698326899      -16.1239203533
 O        -3.5054984766        3.7248159355      -17.2184886568
 C        -4.1545058425        5.6877020828      -15.8794902285
 C        -3.6097772829        6.5436236109      -17.0216167749
 O        -4.2434948479        6.6778487278      -18.0726215089
 C        -2.3099436366        7.4899232691      -16.8961210028
 C        -1.6585754996        7.9074746676      -18.2663209164
 C        -1.1661098537        6.8418366187      -19.1373084466
 O        -0.8460015893        5.7718504075      -18.6413310670
 C        -0.9099401969        7.0287235984      -20.6900935368
 C        -0.7625833471        5.5600704612      -21.3574767717
 O        -1.1545376807        4.5551884427      -20.7694855993
 C        -0.1491338243        5.4998599536      -22.7410560428
 C        -0.6657929033        4.3493326199      -23.6229658015
 C        -2.1829451533        4.4842445774      -23.9912353046
 O        -2.5928564839        5.5729184670      -24.2809505275
 C        -3.1688960328        3.2067794111      -23.7189467495
 C        -4.0506212381        3.6877997689      -22.5519060453
 O        -3.7043374929        3.4567749935      -21.4080603999
 C        -5.1482136943        4.6568151952      -22.8448749227
 C        -5.7296426171        5.4255440720      -21.5619587290
 C        -6.4159030278        4.5234039022      -20.4612151444
 O        -5.6973349547        4.0099550873      -19.6554754512
 C        -8.0016396317        4.2029692877      -20.4636291296
 C        -8.3124107665        3.0978368503      -19.3138727688
 O        -8.5660787200        1.9642994096      -19.6814693152
 C        -8.3595237261        3.6114879838      -17.8872000943
 C        -8.3770482717        2.4513496785      -16.8579339299
 C        -8.8383161661        2.7443803094      -15.3326078800
 O        -8.1021932792        3.0380734320      -14.4751320034
 C       -10.4479838356        2.7727930602      -15.0845571134
 C       -10.9132587182        4.2334768209      -15.4923995574
 O       -10.5896304449        5.2329120192      -14.9468722118
 C       -11.7096181569        4.3268870088      -16.7838595431
 C       -11.2018447413        1.7047740593      -15.8346600024
 C       -10.5739126833        2.5763726238      -13.5589764444
 C        -8.7494204088        5.5454660189      -20.1437601353
 C        -8.4251256853        3.6520499743      -21.7868341156
 C        -3.9572007884        3.0961986287      -25.0747088893
 C        -2.4249234705        1.8884841422      -23.3280697503
 C        -2.0966777356        7.7520957474      -21.2845519036
 C         0.3421497248        7.9736514753      -20.9510854187
 C        -5.6767789756        5.8900771605      -15.9746113795
 C        -3.5578295885        6.1548853632      -14.4588225769
 C        -2.2179363825        0.8963943709      -11.1559257060
 C        -0.7577666309        1.2491554031      -13.2272534843
 C        -0.3909082390       -4.9545885146      -11.7746052933
 C        -2.6688205859       -5.7089796143      -12.2591623245
 C        -5.4763288947       -6.1071536298       -5.5176219643
 C        -5.9121320674       -3.7302286059       -4.7791153595
 C        -3.7442572008       -3.2983942026        0.7049802798
 C        -1.3322277060       -2.3371531341        1.1705122073
 C         3.1289623492       -7.3794939605        1.5975345613
 C         3.4980807333       -7.7860103630       -1.0236082533
 C        -1.1416608213      -13.1624585105       -0.8384152812
 C        -3.3728040843      -12.1830612998       -0.2579419027
 C        -0.4798811367       -9.4033847589        5.0158212873
 C        -2.6512763840       -9.8140098046        6.3480518301
 H        -4.4579673791       -7.3027737971        5.1116707891
 H        -3.4737592194       -5.9414439466        5.6012752072
 H        -3.6621500179       -7.4771794371        6.5431443684
 H        -2.8099348243      -12.0512612093        4.8433690236
 H        -1.1788846992      -11.8977421335        4.0793581503
 H        -3.6124597369      -11.9813962959        2.3698386286
 H        -2.7075042640      -13.5082404965        2.7775529084
 H         0.4812582955      -10.9417330704       -1.5073006089
 H         0.7791376579      -10.7939316617        0.1668393950
 H        -0.5023073762       -8.3677724989       -1.0519277121
 H         1.0047225249       -8.7401902195       -1.8645253869
 H         1.1724884256       -4.3684073240        1.1685261406
 H         0.5860162780       -6.0191932127        1.3080141727
 H        -0.2868549597       -5.8606121051       -0.9815627692
 H        -0.0192159597       -4.0554994426       -0.8505347797
 H        -4.3050746861       -3.5202149598       -1.8933907652
 H        -3.1056246805       -4.6364836814       -1.8063305712
 H        -1.8843915932       -3.4185854344       -3.7666784617
 H        -3.5002438186       -2.6072031269       -3.9634474069
 H        -3.7625650001       -6.0796612663       -7.6298041109
 H        -2.4232096011       -5.1253928514       -7.0711396411
 H        -3.3639047262       -3.4746729737       -9.2232120935
 H        -4.3113565912       -4.9334466462       -9.6253342505
 H        -4.1185432460       -3.5583844381      -12.0242911276
 H        -3.0360409366       -3.4164785032      -13.4104941009
 H        -3.8506925620       -1.0641283973      -11.7116772000
 H        -4.5362021223       -1.3276800083      -13.2536245501
 H        -3.0400994350        1.3182166898      -15.4570823329
 H        -2.2945629101        2.7094792432      -14.7557070815
 H        -4.7428353844        3.5459811607      -14.2859156303
 H        -5.2514912862        2.3901391688      -15.4926784298
 H        -1.6956501897        6.9478753192      -16.1737537390
 H        -2.6302737856        8.3521479127      -16.3587250127
 H        -0.8427151652        8.5614458411      -17.9868816589
 H        -2.2922156951        8.5341719739      -18.8668905779
 H         0.9266231230        5.2808634355      -22.6062453137
 H        -0.0956829845        6.3647441870      -23.4252612150
 H        -0.3296395233        3.3788479699      -23.1906963537
 H        -0.1345471976        4.2550529387      -24.6245557011
 H        -6.0453571494        4.0936573130      -23.2541377458
 H        -4.8984558104        5.2713063702      -23.6626509229
 H        -6.3408289550        6.2094298814      -21.9609553264
 H        -4.8270744222        5.8994797946      -21.1419363561
 H        -9.1932997862        4.3661061732      -17.6661219913
 H        -7.5254745391        4.2353681142      -17.7927557833
 H        -7.3647348799        2.0469137671      -16.8631686290
 H        -8.9683249461        1.6854087443      -17.3663348413
 H       -12.6938097929        3.9064576722      -16.7268777153
 H       -11.2614748090        3.6849217897      -17.4853286326
 H       -11.8964644175        5.4098403006      -17.0479033681
 H       -11.2263011977        2.0348688367      -16.8762694867
 H       -12.2005038365        1.6400447525      -15.5277566597
 H       -10.5711848536        0.8037435152      -15.7414336589
 H       -10.3792521550        1.6001228296      -13.1171036927
 H       -11.5821443524        2.8015162375      -13.2936433503
 H       -10.0091989520        3.2248999208      -12.8959760935
 H        -8.3583075956        6.1279172477      -19.2505715763
 H        -9.7488861689        5.4744104205      -19.9739390472
 H        -8.6511184468        6.2738546025      -20.9617268712
 H        -8.1667204407        2.5786489903      -21.7448457005
 H        -8.1870823755        4.2277396497      -22.7035148080
 H        -9.5157999360        3.5258499927      -21.7709900191
 H        -4.8968607298        2.4830871716      -25.0380286295
 H        -3.3050585969        2.3707046428      -25.6913797170
 H        -4.0366979190        4.0356944141      -25.7075390698
 H        -1.7912929981        1.5722130576      -24.1657872779
 H        -3.0028036418        1.1035862157      -22.9158419935
 H        -1.7068516352        2.1284419796      -22.5448221206
 H        -2.1610771269        8.6922811370      -20.8799962492
 H        -3.1419996598        7.3965688471      -21.1605146008
 H        -1.9168383099        7.8970299943      -22.3699025051
 H         1.2161766969        7.5755971215      -21.4537567695
 H         0.6347603167        8.3746332345      -20.0392469977
 H         0.0765741807        8.8566141722      -21.5816559236
 H        -6.0294865743        5.8499381444      -17.0053005348
 H        -6.0015955423        6.7826096404      -15.4293637648
 H        -6.2338345738        5.0325777344      -15.5497849152
 H        -2.4960207615        6.2612394139      -14.2625766061
 H        -4.0573622668        5.4682426603      -13.7442863935
 H        -3.9495996462        7.1885842549      -14.4446250857
 H        -1.6585358812        0.1927141923      -10.5155943717
 H        -3.2087087265        0.7604781347      -10.7780404394
 H        -1.9925217029        1.9285518375      -10.9358115643
 H        -0.8520806441        1.0965252687      -14.3304483553
 H        -0.0550812557        0.5004652936      -12.9028968042
 H        -0.4840707288        2.2760859708      -13.0866464628
 H         0.1931646381       -4.0802081984      -11.5231949083
 H        -0.4228893889       -5.2099768000      -12.7419597105
 H         0.0119973922       -5.7475938912      -11.2209029713
 H        -2.4257354680       -5.2944509724      -13.2879497680
 H        -3.7544612650       -5.7302699573      -12.0623674170
 H        -2.3490028112       -6.7496989592      -12.1378100196
 H        -5.4081923114       -6.6834035343       -4.5946704092
 H        -5.2056047922       -6.6331338811       -6.4018472684
 H        -6.5361575114       -5.9350982638       -5.7143983079
 H        -6.8377797975       -4.1549866400       -4.5422231684
 H        -6.1918233725       -2.8564725709       -5.4081729196
 H        -5.5581070767       -3.1988315445       -3.8956694654
 H        -3.8318240907       -3.0926268511        1.7777964007
 H        -4.2076038376       -4.2704846405        0.7412398393
 H        -4.3243064879       -2.5515059234        0.1966912430
 H        -1.5908854707       -1.2954620312        1.0495885308
 H        -0.3549290982       -2.4141903522        0.7441258467
 H        -1.4960264023       -2.5705464663        2.1647892864
 H         2.5034286696       -8.1256404044        2.1972542907
 H         3.0836686879       -6.4638829647        2.1362743378
 H         4.0312984334       -7.8720297966        1.4811716190
 H         4.5136959587       -7.4384217162       -0.8739858143
 H         3.1024173930       -7.4555852580       -1.9735094051
 H         3.5997304590       -8.8522386539       -0.9885942116
 H        -1.6417100114      -13.3849948999       -1.8335518155
 H        -1.0624994142      -14.1571531390       -0.3172908814
 H        -0.1315309376      -12.8236964728       -1.0645637810
 H        -3.6917244961      -12.0960075945       -1.2813506653
 H        -3.9232310610      -11.4980399577        0.3419455224
 H        -3.6677927808      -13.1772706560        0.0974836491
 H        -0.1240777085       -9.5871077191        6.0603544414
 H         0.0401027831       -8.4772349518        4.6537025195
 H         0.0213241335      -10.1865401542        4.4306887483
 H        -2.9014468846      -10.8335439841        6.2686337230
 H        -3.5978039512       -9.2627782738        6.4905401017
 H        -2.0419251269       -9.6506119988        7.1984033648
 Na       -1.6942552052       -8.0185167560        1.5905262022
 Na       -3.0918675072        4.2665577085      -19.4086456977
