232

 C        -3.3316627968       -7.0065045074        5.4964502289
 C        -2.3559998311       -7.7217863794        4.6733028572
 O        -1.7824670746       -7.0979651002        3.8303355045
 C        -1.9776419942       -9.2402219115        4.9746111491
 C        -2.3890492992      -10.1330169214        3.7941257555
 O        -2.8063874202       -9.6058681718        2.7721790844
 C        -2.3451511948      -11.6581068033        3.9420729642
 C        -2.6250303147      -12.3603388832        2.5940448588
 C        -1.5076412848      -12.1753972087        1.6454185732
 O        -0.3540391159      -12.1869221714        1.9784003983
 C        -1.8274382112      -12.1426497179        0.1201781057
 C        -1.3353915244      -10.6895976980       -0.2694059095
 O        -2.1717753063       -9.8087526088       -0.2115074093
 C         0.1437813726      -10.3320753335       -0.6655315653
 C         0.3967303991       -8.7923245092       -0.9467430224
 C         1.1222148306       -8.1933859276        0.2198085436
 O         0.6071718307       -8.2759197361        1.3419868514
 C         2.4732451868       -7.4605795101        0.1339146864
 C         2.2029223337       -5.9462160730       -0.1963460559
 O         2.7227262301       -5.2927844740       -1.0311806148
 C         0.9921150217       -5.2849543511        0.6903945634
 C        -0.1317411571       -4.9434579420       -0.3332249844
 C        -1.5969732205       -4.8096078630        0.2928826588
 O        -2.2373136295       -5.7821737436        0.6569894549
 C        -2.2247477324       -3.3706844243        0.2930294350
 C        -2.1486998890       -3.0520262185       -1.2777824628
 O        -1.3066363128       -2.2425351320       -1.6838670831
 C        -3.1465984773       -3.8108497076       -2.2884221987
 C        -2.9365461373       -3.5949402278       -3.7525073052
 C        -3.5112501854       -4.7796091961       -4.6744630947
 O        -2.8245171310       -5.7525242176       -4.6049751857
 C        -4.9108396401       -4.6996748811       -5.3837494346
 C        -4.5067428546       -4.1521540478       -6.8614854456
 O        -4.9349220544       -3.1268197621       -7.3226173248
 C        -3.4549944030       -4.9387336075       -7.7126257982
 C        -3.2280058431       -4.3995804938       -9.1606487697
 C        -2.0171540790       -5.0821011771       -9.7503444530
 O        -1.1138437469       -5.6500196431       -9.2083857512
 C        -1.8498773845       -4.7013482498      -11.3981537343
 C        -2.2311828150       -3.1467929269      -11.5391972596
 O        -1.6197863523       -2.2877241757      -10.9490388848
 C        -3.3699339724       -2.7976686170      -12.5848745183
 C        -3.5854511904       -1.2925989928      -12.7006152837
 C        -2.4348797205       -0.5706291717      -13.3034680609
 O        -1.9630031003       -0.9519085708      -14.3917615088
 C        -2.1142015110        0.8987429470      -12.7410999598
 C        -3.3155243282        1.7162985995      -13.2929683553
 O        -4.3708157428        1.6647792147      -12.6476928699
 C        -3.1737624408        2.2989604725      -14.7105814236
 C        -4.4309602319        3.0912893492      -15.1793431659
 C        -3.9750347744        4.1707384993      -16.2002611660
 O        -3.3988985286        3.7341604154      -17.1700983157
 C        -4.3312006338        5.7273548707      -15.8973690490
 C        -3.7118344959        6.5934875438      -17.1449348251
 O        -4.2723701121        6.5700192104      -18.2038061566
 C        -2.3950212446        7.4584268446      -16.9015919125
 C        -1.8693402965        7.9406893512      -18.1979497291
 C        -1.1222411708        6.7739395844      -19.0916584703
 O        -0.6184870973        5.8209018901      -18.5145512760
 C        -0.9283352236        7.0250876702      -20.6821771257
 C        -0.8286666584        5.5266056832      -21.2952919343
 O        -1.1988891078        4.5401238072      -20.6978679004
 C        -0.1349975505        5.4903551750      -22.6471273753
 C        -0.6507131888        4.3934955663      -23.5848172954
 C        -2.1392539224        4.4901342653      -23.8917608937
 O        -2.6526186033        5.4465387022      -24.4847194095
 C        -3.0162841493        3.2319414035      -23.7130547578
 C        -4.0302095762        3.6979102070      -22.5039828138
 O        -3.7489519114        3.3360486338      -21.3722701616
 C        -5.2118660011        4.6409097154      -22.7898599224
 C        -5.7826077807        5.3008362643      -21.5404633038
 C        -6.4032078144        4.4436648516      -20.4405167237
 O        -5.7733177870        4.1199113785      -19.4468128628
 C        -7.9846809875        4.1755087802      -20.4269806137
 C        -8.3846847974        3.1122005005      -19.2992052232
 O        -8.7726897041        2.0326181885      -19.6730958073
 C        -8.2256358844        3.4170307634      -17.8038807045
 C        -8.3296923727        2.2357777255      -16.7793036343
 C        -8.8614182700        2.7042103711      -15.4462642336
 O        -7.9878194319        3.0779214695      -14.6517050416
 C       -10.3914903001        2.7745435174      -15.1237126477
 C       -10.8494479786        4.2707862138      -15.5925524209
 O       -10.6045758643        5.2379787377      -14.8609961582
 C       -11.6738884047        4.4600854623      -16.8725991445
 C       -11.3365542412        1.6623781269      -15.7127198638
 C       -10.4624354660        2.6485996583      -13.5082620489
 C        -8.7141867689        5.5088901837      -20.0050392651
 C        -8.4579780192        3.6835514169      -21.8492814835
 C        -3.9037265922        3.1892063649      -25.0198741130
 C        -2.3356569201        1.9656140282      -23.3336433713
 C        -2.0837272404        7.7629496398      -21.3251836216
 C         0.4032742767        7.7381779092      -20.9855205921
 C        -5.8309911344        5.7774773883      -15.9142492381
 C        -3.6287958068        6.0291315366      -14.5721416680
 C        -2.1962462908        0.9179381184      -11.1782406297
 C        -0.6591130798        1.2983582470      -13.3272772217
 C        -0.3245423022       -4.8274956877      -11.7889438683
 C        -2.7589497997       -5.6301586120      -12.2179827179
 C        -5.3711007816       -6.1412094095       -5.4728432300
 C        -5.9049839301       -3.6949287912       -4.8230381121
 C        -3.7510852965       -3.3797764547        0.6801844239
 C        -1.4816807333       -2.4384218966        1.1493748987
 C         3.2584829987       -7.2449014197        1.6534000977
 C         3.3520907118       -7.8287214902       -0.9650385318
 C        -1.0990053024      -13.2625832680       -0.6119445578
 C        -3.3268928563      -12.1927005647       -0.2868622205
 C        -0.3863093751       -9.3169087399        5.0647235546
 C        -2.5586944087       -9.8985130629        6.3041570274
 H        -4.4001594566       -7.3433719553        5.3006890226
 H        -3.2316834118       -5.9765247805        5.3289532413
 H        -3.1597821108       -7.2824865311        6.5273534923
 H        -3.1846320213      -11.8562203969        4.6569979478
 H        -1.4328298405      -12.1987824208        4.3308330389
 H        -3.6035466299      -11.8349440101        2.2325227762
 H        -2.8157161042      -13.4748909867        2.7047530114
 H         0.5155858729      -10.9973413406       -1.4402654640
 H         0.7370609494      -10.7111255413        0.1530551101
 H        -0.6018591081       -8.3626509489       -0.9393971344
 H         0.8653645601       -8.6089097821       -1.9783521186
 H         1.2891568585       -4.3443503044        1.0977468389
 H         0.5790019668       -5.9215844028        1.4436974302
 H        -0.2248200330       -5.7488818876       -1.0886163950
 H         0.0330553184       -3.9603630519       -0.8134790644
 H        -4.1502908261       -3.4172410687       -1.9297806401
 H        -3.2010857375       -4.8259137677       -1.9783998603
 H        -1.9144274956       -3.5886721464       -3.8944297880
 H        -3.3333788821       -2.6166488657       -4.0085450850
 H        -3.7461701261       -6.0122177541       -7.6635724796
 H        -2.5870090150       -4.7561356700       -7.0942153781
 H        -3.1075239275       -3.2870022034       -9.1539057376
 H        -4.1233866812       -4.5541489503       -9.8445461205
 H        -4.2093490522       -3.4577152909      -12.4591699106
 H        -2.8493684394       -3.1438062196      -13.5749075712
 H        -3.9126515905       -0.9141964386      -11.7409129549
 H        -4.4135675735       -1.2326368755      -13.3720889949
 H        -2.9753056939        1.4347685324      -15.3920080330
 H        -2.2706009285        2.9036135904      -14.6878567757
 H        -5.0088602458        3.2624766760      -14.1831049100
 H        -4.9861725216        2.3625859594      -15.7028376008
 H        -1.7659180558        6.7155247649      -16.4252934662
 H        -2.5419879868        8.1487768371      -16.1163063777
 H        -1.1279023711        8.6280447533      -17.9285503365
 H        -2.5663262445        8.5354599577      -18.7983183219
 H         0.8741134993        5.3478537347      -22.4804074413
 H        -0.1976800851        6.3167556177      -23.2841024460
 H        -0.3870824280        3.3603299183      -23.2757700765
 H        -0.1101282910        4.4008303791      -24.5503721603
 H        -6.0516331385        4.1999425363      -23.3934401396
 H        -4.8551877590        5.4066840027      -23.5264625028
 H        -6.4498529076        6.0232084869      -21.8720119947
 H        -4.8774297373        5.8073719375      -21.1753305675
 H        -9.0726958604        4.0679475500      -17.4679105113
 H        -7.4103523611        4.1096017646      -17.6564194674
 H        -7.3541530601        1.8360253033      -16.5770114528
 H        -8.9599245202        1.4291286407      -17.3237028825
 H       -12.6443730378        3.8981534703      -16.7177897457
 H       -11.2684175272        3.9291556313      -17.7365355659
 H       -12.0225255749        5.5086672627      -16.9413234754
 H       -11.2746549539        1.5238192152      -16.7626485620
 H       -12.2946595979        2.1089721116      -15.5619974773
 H       -11.1012477374        0.7234355186      -15.1397904716
 H       -10.2088319674        1.7180901044      -13.0661354612
 H       -11.4962039179        2.9114513662      -13.0996450679
 H        -9.8182629606        3.3318521409      -12.8906940287
 H        -8.2332538990        6.0982576662      -19.2869234744
 H        -9.6953042192        5.2174548348      -19.5752929139
 H        -8.9887894752        6.1707386792      -20.7541123993
 H        -8.1765327400        2.5668943032      -21.9736605684
 H        -8.2294428540        4.3606490211      -22.6597129137
 H        -9.5656478021        3.5950700190      -21.8583215251
 H        -4.9118999490        2.7893158485      -24.9037574392
 H        -3.4427200239        2.4619560292      -25.7123299574
 H        -3.8500098291        4.1580791856      -25.5807837713
 H        -1.4971556744        1.7396145371      -23.9365483296
 H        -2.9727731191        1.0771453392      -23.1162103897
 H        -1.9139516056        2.1846576824      -22.3990706103
 H        -2.1898809416        8.8051609617      -20.9181953869
 H        -3.1352930369        7.3388264101      -21.2135823303
 H        -1.9349715059        7.8411918317      -22.4873253966
 H         1.3062452945        7.1199793660      -20.9668346176
 H         0.5580514714        8.5929265312      -20.3465349150
 H         0.3986088527        8.0606728335      -21.9815024483
 H        -6.0716371126        5.9137728741      -16.9733676727
 H        -6.2090802983        6.5341527828      -15.3045143379
 H        -6.4002117278        4.8740419900      -15.6956455186
 H        -2.5927275289        5.9018364812      -14.6786532268
 H        -3.9956076181        5.3108612111      -13.7822951672
 H        -3.6578181078        7.1560927067      -14.4380152128
 H        -1.7635796802        0.0484600924      -10.7676143357
 H        -3.1634720519        0.9523350921      -10.7764886218
 H        -1.7072424271        1.7843406579      -10.7853164433
 H        -0.8303361993        1.4015855592      -14.3726191187
 H         0.0922236171        0.5316758338      -13.1999441961
 H        -0.3209472754        2.3169402694      -13.0130677473
 H         0.2666145429       -4.0342366480      -11.3760171173
 H        -0.2930533030       -4.8841128508      -12.8628667346
 H         0.0309948745       -5.7635335796      -11.3557186937
 H        -2.7489341696       -5.4208213147      -13.3293673785
 H        -3.7495231688       -5.7179350550      -11.8113586602
 H        -2.3139323888       -6.6118837712      -11.9862881126
 H        -5.2989079424       -6.5956765004       -4.4841953761
 H        -4.9263824431       -6.6616593510       -6.2678566043
 H        -6.4044779302       -6.1362394523       -5.7258534447
 H        -6.8872830521       -3.9628855778       -4.3599023950
 H        -6.2058091359       -3.1306382213       -5.7065067676
 H        -5.5160225384       -2.9342278633       -4.2210087282
 H        -4.0136628048       -3.2518989666        1.6893877768
 H        -4.1086618887       -4.4480443310        0.5682819567
 H        -4.3521115540       -2.6358718214        0.0861235121
 H        -2.1159196318       -1.5792510406        1.2450916471
 H        -0.7039798947       -2.0475057852        0.6132986920
 H        -1.3845584145       -2.8211340058        2.1706703789
 H         2.7563604237       -7.8282170035        2.4591897272
 H         3.1741983401       -6.2333765890        1.8969292802
 H         4.2533103301       -7.6803916455        1.5130293326
 H         4.1633546506       -7.1883061173       -0.9779355435
 H         2.7774361794       -7.6600616413       -1.8898755760
 H         3.7350198514       -8.8388505625       -0.9300878709
 H        -1.5312906836      -13.4439915229       -1.5777437432
 H        -1.1292465666      -14.2444735402       -0.0793483218
 H        -0.0079880229      -12.9696489912       -0.7632378785
 H        -3.4323239877      -12.2149193104       -1.3634045467
 H        -3.7963059187      -11.2566078143        0.1171623426
 H        -3.9118951772      -13.0359737569        0.1346346040
 H        -0.0129730820       -9.6175073106        6.0319559651
 H         0.0193153189       -8.2957406931        4.8892934744
 H         0.1361426929       -9.9539740848        4.3854848462
 H        -2.5173126602      -10.9577124167        6.2515422653
 H        -3.5880104039       -9.6546004085        6.3568915117
 H        -2.0788815080       -9.4742757655        7.1881831572
 Na       -1.5838566112       -8.0104494516        1.6148567328
 Na       -3.1972572016        4.3887501834      -19.2921441270
