232

 C       -18.9163806511      -12.2513442198        0.0533497812
 C       -17.7850426830      -12.5412104766       -0.9309309923
 O       -17.6316784006      -11.7597019304       -1.8158240360
 C       -16.9016278871      -13.8037068142       -0.7553071408
 C       -15.5174015880      -13.4766336766       -1.4108969066
 O       -15.3483814102      -13.5823352659       -2.6323758504
 C       -14.3964060143      -12.9249968540       -0.5165852331
 C       -13.0836764116      -12.5634672658       -1.2836944038
 C       -13.2189285013      -11.4639198565       -2.2769754952
 O       -14.1270511676      -10.5785943421       -2.2508946892
 C       -12.2448318088      -11.4094536884       -3.5542911801
 C       -13.2180998825      -11.2706959626       -4.8026341372
 O       -13.9848950464      -12.1961263194       -5.0316768817
 C       -13.3284208630      -10.0388395860       -5.6696693676
 C       -14.6361242806      -10.0856800069       -6.6160599177
 C       -15.8295629358       -9.4466197804       -5.9203651782
 O       -16.4578479055       -9.9766400221       -4.9563096965
 C       -16.3412942565       -7.9085463213       -6.2889497749
 C       -15.1068181030       -6.9819951380       -6.7081948261
 O       -14.0571102580       -7.2444784431       -6.1529345447
 C       -15.1145663754       -5.8213416609       -7.7306064255
 C       -14.0023128300       -6.1623178447       -8.7953451384
 C       -14.0339700677       -5.1496961080      -10.0285464782
 O       -15.1734819823       -4.7004493879      -10.3372917573
 C       -12.6725584632       -4.6836972167      -10.5954541415
 C       -12.1798078034       -3.6698928469       -9.4284637990
 O       -12.5094770586       -3.8309055550       -8.2644234152
 C       -11.1817525771       -2.4466686798       -9.6721049783
 C       -10.4795526766       -1.9124417728       -8.3941356928
 C       -10.4919731884       -0.3831253675       -8.4483234215
 O       -10.8526515498        0.2696818534       -9.4265567308
 C        -9.6948155460        0.4172533038       -7.3365950537
 C        -8.1984327452        0.2872073618       -7.8749471624
 O        -7.4768291248       -0.6654184806       -7.6589050215
 C        -7.6643138997        1.1910176426       -9.1775510493
 C        -6.4515349285        0.5799721073       -9.8237146839
 C        -5.6123883159        1.6170211624      -10.6540286519
 O        -5.5428379497        2.8016523878      -10.3431863227
 C        -4.5404423872        1.1831728946      -11.7342460562
 C        -3.3696123491        0.6331716015      -10.8765426637
 O        -3.4585451733       -0.5117239959      -10.4555604542
 C        -2.2518900028        1.7083940445      -10.4216949190
 C        -1.2438624791        0.8730028945       -9.5788560985
 C        -0.0467843301        1.7821705868       -9.1498117833
 O        -0.3751890803        2.8812539913       -8.6553970422
 C         1.4094388206        1.2701223211       -9.0273070760
 C         2.4714771755        2.4061486636       -8.9898368769
 O         3.2646015217        2.4699236533       -9.8881365796
 C         2.4466811051        3.4445076044       -7.8362679667
 C         3.6261637043        4.3232256980       -8.0216841309
 C         3.7973711518        4.9720380172       -9.3444254788
 O         2.7722423226        5.5664159117       -9.7390707090
 C         5.1648330286        5.1017437038      -10.2832417098
 C         4.7532950904        4.5318420686      -11.7640710665
 O         5.5350495203        3.7826305879      -12.3279319118
 C         3.3679649680        4.9071118306      -12.4364724049
 C         3.3960776422        6.1790150897      -13.2575458551
 C         3.6251714677        5.9531015193      -14.8282715177
 O         3.7669673780        4.8332778707      -15.2346732249
 C         3.8181418120        7.0423073530      -15.9559666355
 C         5.1072795903        6.7865856709      -16.7078664900
 O         5.1444905919        6.3513669089      -17.8394879884
 C         6.4441804964        7.2664035758      -16.0286811936
 C         7.5587568191        6.5891037614      -16.6865192477
 C         7.2727481040        5.0879051877      -16.6934687150
 O         6.3253063680        4.6241302851      -16.1267595238
 C         8.2976547135        4.0422251437      -17.5137275117
 C         9.6106241486        3.9972114344      -16.6519707691
 O         9.4810055800        4.3348056928      -15.4416448385
 C        11.0060704427        3.7222351966      -17.2931933052
 C        11.5214294739        2.3974309555      -16.6386525276
 C        10.7330505248        1.1104777470      -17.1234212569
 O        10.0910130763        1.0418661065      -18.1404658279
 C        11.1201563141       -0.2206696574      -16.3056833426
 C        11.0064276288        0.0986021084      -14.7517495599
 O        12.0176675464       -0.1773809065      -14.1232178164
 C         9.8163310724        0.9621626156      -14.2010103472
 C         8.7323895166       -0.0039971631      -13.6972326817
 C         7.3308098037        0.6765184968      -13.8046449966
 O         7.1821768988        1.7121101468      -14.4050261996
 C         6.1449327158       -0.1674739554      -13.0336299547
 C         5.0220645522       -0.2237202976      -14.2026550330
 O         4.3313649749        0.7850785986      -14.5385071789
 C         4.7212750524       -1.5510423136      -14.8752584358
 C         6.6317344171       -1.3908992830      -12.2922813173
 C         5.6535159033        0.8744140643      -11.9851070806
 C        10.0838438592       -1.2769526545      -16.6875670286
 C        12.5324351188       -0.7313053416      -16.7082725400
 C         7.5960129823        2.6112197847      -17.5072235189
 C         8.5530430158        4.5590235697      -18.9215239147
 C         2.5419930961        6.8180140540      -16.8736191604
 C         3.7600138289        8.4641038386      -15.3303755636
 C         5.6199311789        6.5606986973      -10.2388113452
 C         6.2419572409        4.1289681723       -9.7546490927
 C         1.4725221361        0.5646329028       -7.5703931440
 C         1.8953636268        0.2734205683      -10.0851356324
 C        -5.0198105362       -0.0265354322      -12.6881652520
 C        -4.1092245811        2.3816775560      -12.6727100046
 C       -10.2450960372        1.8554193464       -7.1767654663
 C        -9.7836374295       -0.2053052646       -5.8861558865
 C       -11.6249472758       -5.8255436376      -10.8917779823
 C       -12.7593269295       -3.8695654487      -11.9449347831
 C       -17.3678600992       -7.9132357416       -7.4501146612
 C       -16.9794414443       -7.3724512462       -4.9272866069
 C       -11.2363762263      -10.2489330775       -3.3835149519
 C       -11.4701201158      -12.8077534843       -3.6785706554
 C       -16.6539360314      -14.2935883143        0.7007008198
 C       -17.6325048908      -14.9672053577       -1.5657507469
 H       -18.3835826456      -11.9612039436        0.9194893045
 H       -19.5358833194      -13.1446238322        0.3449652431
 H       -19.5435808081      -11.4319427472       -0.3150074593
 H       -14.1581178291      -13.5988188316        0.3536418896
 H       -14.6937958206      -12.0186169317        0.0009694180
 H       -12.7742451448      -13.4807568918       -1.7841601418
 H       -12.3225104854      -12.3646863623       -0.5855662543
 H       -12.4225399352       -9.9792608757       -6.3104202837
 H       -13.3895705683       -9.1970266138       -5.0320358268
 H       -15.0106195465      -11.1533018386       -7.0088873319
 H       -14.3114142130       -9.4921050319       -7.5338078286
 H       -14.6848979635       -4.9233177476       -7.1872917500
 H       -16.0837786555       -5.5339275386       -8.0846045530
 H       -13.9771839073       -7.1816089302       -9.1559402426
 H       -13.0815013514       -6.0174003141       -8.1989595836
 H       -11.8921149616       -1.5830392293       -9.9255721273
 H       -10.4795952949       -2.7197709933      -10.4799214429
 H        -9.4621158091       -2.2236809624       -8.3161354905
 H       -10.9798438908       -2.1570543145       -7.4319666496
 H        -7.4707656711        2.1662893469       -8.7587748473
 H        -8.4895001834        1.3170255650       -9.8227111683
 H        -6.7015422799       -0.3186415312      -10.3909783243
 H        -5.8123915023        0.2608837529       -8.9767380967
 H        -2.8668073860        2.5063478754       -9.8124756682
 H        -1.7752414119        2.1447731334      -11.3439754781
 H        -0.7839816845       -0.0870291022       -9.9786270446
 H        -1.6051643102        0.5503648321       -8.6766710860
 H         2.4906622881        2.9236992116       -6.8772594088
 H         1.4971119605        4.1343110767       -7.8445687242
 H         4.6175202665        3.9441127926       -7.7777722903
 H         3.6322480228        5.1349479513       -7.3444843649
 H         2.5992750029        4.9461793687      -11.7040493268
 H         3.1631096212        4.0745833253      -13.1911129627
 H         4.2765219001        6.7824114920      -12.9370526700
 H         2.4850606496        6.7756027614      -13.1483028272
 H         6.3744858130        7.1284602347      -14.9094430834
 H         6.5345974390        8.3522031273      -16.1893464104
 H         8.4377578344        6.6509765542      -16.0587462071
 H         7.7416045725        7.0699793395      -17.5936728712
 H        11.7843692477        4.4813865814      -17.1678181230
 H        10.8773065678        3.5514022371      -18.3907550084
 H        11.2638684095        2.4200093759      -15.5539015213
 H        12.6041173210        2.2684347108      -16.7867399054
 H         9.4222187831        1.4403583205      -15.1169367785
 H         9.9949309737        1.7137166759      -13.4956148269
 H         8.9716019820       -0.2702378102      -12.6999253843
 H         8.6723372957       -0.9607059124      -14.3157155670
 H         5.0712965155       -2.5696622083      -14.4710499154
 H         5.1410778496       -1.4281141478      -15.9018242978
 H         3.6868660660       -1.7215804756      -15.0315090666
 H         5.7461675008       -1.9057001621      -11.9447071004
 H         7.1759334671       -1.0280218288      -11.4468884827
 H         7.2803288236       -2.0114871277      -12.8805474739
 H         6.4294896002        1.1735350323      -11.3613947847
 H         4.8178465526        0.6504014885      -11.4210806279
 H         5.3364079042        1.7806504820      -12.5312044981
 H        10.1254288181       -1.2564800869      -17.7349616121
 H         9.1579042695       -1.0973202630      -16.2196653610
 H        10.4786985860       -2.2349363749      -16.3522263316
 H        12.6091325505       -0.9298213856      -17.7754435896
 H        12.8694039725       -1.6629573188      -16.2666295054
 H        13.2594430208       -0.0842551190      -16.2342202096
 H         7.8482011607        2.0220327145      -16.5790594067
 H         7.9591579824        2.0751833853      -18.3292766405
 H         6.5251286822        2.4852119861      -17.5098851400
 H         9.2222371293        5.4071353158      -18.7525062208
 H         7.6454146288        4.7047205578      -19.4079120472
 H         9.0569388244        3.6714665742      -19.4591414482
 H         1.5526808408        6.9552903223      -16.3308635375
 H         2.3701397177        5.8379891228      -17.1953277884
 H         2.6274743972        7.5767668217      -17.6958197511
 H         3.6668046908        9.2695991394      -16.1750943683
 H         4.7783401062        8.5659973125      -14.8382471963
 H         2.9068218026        8.7390961651      -14.6922256385
 H         5.9860789266        6.9706495548       -9.3030464879
 H         4.6609626379        7.2081686436      -10.2984306283
 H         6.1882810428        7.1137963291      -10.9440056888
 H         6.9000778227        3.9051248375      -10.5779326371
 H         5.9693574285        3.0268879761       -9.5411948436
 H         6.7193992756        4.3072057829       -8.8022214808
 H         1.1642442874        1.2270446061       -6.8040704459
 H         2.4380147184        0.2489235656       -7.3927789840
 H         0.7579533336       -0.1754872051       -7.5742474817
 H         1.0949958494       -0.4292865532      -10.5278526628
 H         2.4965836841       -0.4563093592       -9.5169100701
 H         2.3078517226        0.6904016601      -11.0178083052
 H        -5.1087406491       -0.9502374071      -12.1599234884
 H        -4.2863469058       -0.1615403809      -13.5016102837
 H        -5.9705400233        0.1911587634      -13.2255949126
 H        -3.4181509841        2.1640593188      -13.4994194514
 H        -3.7940219600        3.1268895064      -11.9913326361
 H        -4.9924216780        2.8708811614      -13.1219934640
 H       -11.2417836602        1.7648285673       -6.8533417193
 H       -10.1211746993        2.4444228504       -8.0300950466
 H        -9.8284652871        2.5093583184       -6.3807369718
 H        -9.9662629377        0.5714893708       -5.1094285823
 H        -8.8443037387       -0.6261663157       -5.6051553449
 H       -10.4807598229       -1.0097693742       -5.7574528279
 H       -10.6279460493       -5.4120969736      -11.0911766613
 H       -11.9242862142       -6.5002062463      -11.7111929321
 H       -11.4979664906       -6.5238860067      -10.0399776663
 H       -12.7566487148       -4.5383726493      -12.8393721524
 H       -11.9697132467       -3.0829541676      -12.0402537196
 H       -13.7655139445       -3.5517811600      -11.9645818981
 H       -16.8701607762       -8.0973355767       -8.4057684994
 H       -17.9627502752       -7.0378979069       -7.4308806841
 H       -18.0689299503       -8.7214738213       -7.4779545645
 H       -16.1572678326       -7.5063646934       -4.3115228923
 H       -17.8655899494       -7.8718742460       -4.7049162157
 H       -17.2406577422       -6.2938676086       -5.0292597123
 H       -11.8986422965       -9.3883371642       -3.2414871164
 H       -10.5231081044      -10.1683941116       -4.2130752817
 H       -10.7953707285      -10.3872940785       -2.4148052219
 H       -12.2513136364      -13.5912636477       -3.6122861766
 H       -10.8663605626      -12.8439946414       -2.6865013868
 H       -10.8827618959      -12.8758310975       -4.5369082414
 H       -16.5979281403      -13.4665369836        1.3986566286
 H       -15.7058776952      -14.9010573217        0.7668293770
 H       -17.5195433781      -14.9416826435        1.1395018523
 H       -17.6734214262      -15.8551338413       -1.0142297893
 H       -17.0580093715      -15.1366309622       -2.4657799999
 H       -18.6652773259      -14.7009530476       -1.8755687101
 Na      -15.9094545481      -11.5856875730       -3.7292438395
 Na        4.9789104810        2.9970818381      -14.7917331822
