232

 C        -2.5226939810       -6.7699472930        5.7153730252
 C        -2.0496398143       -7.5932771395        4.5648424161
 O        -2.0100609987       -7.1424446579        3.4463476667
 C        -1.5265166083       -8.9711091923        4.8873489469
 C        -2.1380864026       -9.9818740858        3.7609224420
 O        -2.0597603310       -9.7062715067        2.6107923883
 C        -2.8969938832      -11.3031542443        4.0047310285
 C        -3.0341237881      -12.0966200328        2.6552672707
 C        -1.7047056705      -12.1868572167        1.9154913857
 O        -0.6006673789      -12.2007308281        2.3975162538
 C        -1.8062672011      -12.2591160672        0.3299810300
 C        -1.3005117752      -10.8185589439       -0.0288471578
 O        -2.0797431931       -9.8881835175       -0.0178017555
 C         0.1890353918      -10.7598120569       -0.4255825224
 C         0.7114500053       -9.3754545895       -0.8383593822
 C         1.4443034531       -8.6832567791        0.3323333125
 O         0.8913370279       -8.5435781874        1.4040283193
 C         2.7813397858       -7.8579586046        0.0727719800
 C         2.2364637395       -6.3189517259       -0.5276493287
 O         2.5627334833       -5.8955750943       -1.5615214966
 C         1.0300763786       -5.6499716059        0.3996725561
 C         0.0194336259       -4.8028433416       -0.4428677118
 C        -1.4608122325       -4.7452168796        0.2586663348
 O        -1.9605527907       -5.7178801523        0.8144061168
 C        -2.3789917632       -3.5379656613        0.0755793448
 C        -2.5753930802       -3.1072318680       -1.4813552786
 O        -2.5990008691       -1.9068292780       -1.7444095507
 C        -2.9256042762       -4.3599170674       -2.4024418975
 C        -2.7239849758       -3.8847491510       -3.8416832105
 C        -3.4989796671       -4.9040939770       -4.7918679092
 O        -3.0464497735       -6.0012724514       -4.9500237696
 C        -4.8890590580       -4.6283851108       -5.5907781384
 C        -4.5142936714       -3.9124575125       -6.9193599946
 O        -5.0806216053       -2.9159433648       -7.3059074262
 C        -3.4097639569       -4.5641415206       -7.7509940554
 C        -2.8102144764       -3.7581098894       -8.7742374804
 C        -1.9217525198       -4.6691089610       -9.7725883596
 O        -1.3783730174       -5.6619931152       -9.3806894464
 C        -1.9369393297       -4.3045477860      -11.3048529384
 C        -2.3064935229       -2.8745405612      -11.6337255176
 O        -1.9399475239       -1.9941855990      -10.9245607124
 C        -3.3101094474       -2.6197844335      -12.7926227654
 C        -3.5490600807       -1.1135945041      -12.8907449079
 C        -2.3973553750       -0.3400996358      -13.5484151754
 O        -1.9740297924       -0.6727095015      -14.6263820110
 C        -1.9117907225        1.0346713067      -12.9314229960
 C        -3.0641744937        2.0498803346      -13.2759983831
 O        -4.0933965537        2.0878467050      -12.5692359664
 C        -2.9205098092        3.1362520737      -14.3678474680
 C        -4.2922634681        3.2083901165      -15.1862293195
 C        -4.2840119039        4.2163109085      -16.2368428014
 O        -3.8264813467        3.9046682401      -17.3281756311
 C        -4.8399072840        5.6900872658      -16.0479318221
 C        -4.1815475936        6.6908154039      -17.2225861175
 O        -4.7334282638        6.7599074198      -18.3102490891
 C        -2.7609987594        7.5415294560      -17.0122591128
 C        -2.2144397578        8.0373501398      -18.3519669433
 C        -1.1075668438        7.0915027088      -18.9465922634
 O        -0.7079794790        6.0675498019      -18.4045242988
 C        -0.6967190377        7.3140996346      -20.4658420749
 C        -0.9871477457        5.8207462971      -21.1722647930
 O        -1.8673588986        5.1534861068      -20.6843839264
 C        -0.2085755855        5.2937604332      -22.4210039323
 C        -0.6477307757        3.9407798187      -22.9416904429
 C        -2.1155161982        4.0711115647      -23.4927661522
 O        -2.4373894718        5.1892218404      -23.8905976651
 C        -3.1832019027        3.0208717123      -23.5252729473
 C        -4.0906225921        3.4034201718      -22.3090680882
 O        -3.8049787283        2.9089553360      -21.2341981780
 C        -5.1532956955        4.4100396691      -22.5820788818
 C        -5.7443034138        5.1640739225      -21.3313069695
 C        -6.4925195836        4.2981978211      -20.2706924570
 O        -5.8078039368        3.7298774523      -19.4725207364
 C        -8.0130934019        4.0300807259      -20.2261810018
 C        -8.5699371092        2.7184247297      -19.4671972306
 O        -9.6327260441        2.2617142466      -19.8598442764
 C        -7.9526372251        2.1862322390      -18.1823627048
 C        -8.9848860160        1.7546133597      -17.0321117423
 C        -8.8400163545        2.6336673754      -15.7604860680
 O        -7.7840927409        3.0640413084      -15.3896449301
 C       -10.1157242484        2.9749192838      -14.9446757080
 C       -10.6081248255        4.3355700224      -15.5545407053
 O       -10.2308412413        5.3314586679      -14.9268311001
 C       -11.4418444746        4.3882557180      -16.7835359161
 C       -11.1702811781        1.8647754636      -15.0139624910
 C        -9.7002468938        3.2701606711      -13.4727858769
 C        -8.5765426126        5.2919372153      -19.4408722925
 C        -8.5745753196        3.9968428655      -21.6452512830
 C        -3.8556164283        2.9718088651      -24.9066277627
 C        -2.8042635075        1.5316946776      -23.3033046965
 C        -1.5342808265        8.3426691077      -21.2327784963
 C         0.8514842030        7.6486382680      -20.6027726927
 C        -6.3142137613        5.4943252371      -16.2288236425
 C        -4.5584830498        6.2184097390      -14.5320364358
 C        -1.8043352354        0.9094457574      -11.3741732409
 C        -0.5598697736        1.4458534532      -13.6023316797
 C        -0.4421291634       -4.5881468878      -11.7520529714
 C        -2.8455984196       -5.4423286179      -11.9874291490
 C        -5.5160052150       -5.9968522083       -5.8540501645
 C        -5.9440999918       -3.8535794093       -4.8031011720
 C        -3.7474733217       -3.9459399031        0.6763771048
 C        -1.8458675437       -2.2302074217        0.9136402076
 C         3.4196030321       -7.5790864296        1.5120448197
 C         3.7748236964       -8.6140268961       -0.8138849323
 C        -0.8947528872      -13.4611765312        0.0141795089
 C        -3.1809901971      -12.5117750650       -0.3197836786
 C         0.1018625803       -8.9541895782        4.6208976510
 C        -1.7793961684       -9.4948603179        6.2507660483
 H        -3.5118149445       -7.1167441035        6.0140948761
 H        -2.6929742168       -5.7499680781        5.3717908743
 H        -1.7632463409       -6.6350120037        6.5615025929
 H        -3.8989916857      -11.1136521448        4.3779603373
 H        -2.4786972532      -12.0446770068        4.6297742039
 H        -3.7710083449      -11.5481375106        2.0577557672
 H        -3.4322044273      -13.0661935580        2.7068748995
 H         0.2463211850      -11.4135357668       -1.2508409005
 H         0.8056829392      -11.0710970898        0.4123534902
 H        -0.2121882506       -8.7232583020       -1.0518634284
 H         1.2535248438       -9.4524100553       -1.7908025423
 H         1.5478016725       -5.1084614450        1.2482144264
 H         0.4745165167       -6.4203279661        0.9916640795
 H        -0.0935963650       -5.3177394652       -1.4100910860
 H         0.3480109503       -3.8201804831       -0.7638988912
 H        -3.9376867675       -4.6272533427       -2.1288677905
 H        -2.2252515200       -5.2256590237       -2.1855269942
 H        -1.6939285801       -3.9780092128       -4.1485376332
 H        -2.9625708289       -2.7741242446       -4.0544078956
 H        -3.9686687007       -5.3857744053       -8.2517319144
 H        -2.6021906609       -5.0428462001       -7.0692448614
 H        -2.1511551321       -2.9729274238       -8.3636012976
 H        -3.3931553634       -3.0743302133       -9.3397211148
 H        -4.1437065949       -3.3253458208      -12.5624637189
 H        -2.9459929128       -3.0306569360      -13.6598717785
 H        -3.6978218354       -0.8583139269      -11.8446454236
 H        -4.5625626028       -0.8937213671      -13.4405400748
 H        -2.2199153700        2.9028786377      -15.1828395337
 H        -2.7749548055        4.1063865443      -13.8431904956
 H        -5.1247143773        3.4936067717      -14.6208782981
 H        -4.4949099439        2.1753870513      -15.6192535840
 H        -2.1172793452        6.8045488192      -16.5175357418
 H        -2.9497026955        8.3134924666      -16.2402480604
 H        -1.7874077610        9.0822941142      -18.2169845980
 H        -2.9992829302        8.0634123741      -19.0987188423
 H         0.8559999094        5.0333871742      -22.2378025510
 H        -0.3256097249        5.9637871489      -23.2988798191
 H        -0.5605032872        3.2630289421      -22.1215921345
 H        -0.1802132212        3.5640074787      -23.8285289647
 H        -5.9609124435        3.8203876672      -23.1180250869
 H        -4.8181812503        5.0802323329      -23.3876277213
 H        -6.3931499678        5.9388876967      -21.7923082963
 H        -4.8788434402        5.6072834667      -20.8719571304
 H        -7.3098811236        3.0396573701      -17.8681850954
 H        -7.2790186871        1.3401950462      -18.3084019138
 H        -8.7374115189        0.7099481012      -16.6670428747
 H        -9.9785481491        1.8307372675      -17.4364730552
 H       -12.5173626001        4.4509334946      -16.5971919369
 H       -11.1318616501        3.5173994158      -17.3687014965
 H       -11.1554948017        5.3192440019      -17.4365563041
 H       -12.0862234628        2.4333274735      -15.3201878759
 H       -11.3344479752        1.4870848970      -14.0362954695
 H       -11.0462766361        1.0356718745      -15.7471061022
 H        -9.4252518296        2.3402561757      -12.9073813338
 H       -10.4389075225        3.7441531335      -12.8269382409
 H        -8.8285772876        3.9369678344      -13.2942028785
 H        -8.1670105977        5.3757515368      -18.4044954651
 H        -9.6063535869        5.1693037462      -19.3387315694
 H        -8.3659091642        6.2079970478      -20.0252013755
 H        -7.9526100313        3.3016469365      -22.1799691600
 H        -8.3137240954        4.9375030657      -22.1728944306
 H        -9.6460355849        3.8910756075      -21.6556382354
 H        -4.8260277473        2.5390410245      -24.8575431037
 H        -3.1952172228        2.3027884380      -25.4521631727
 H        -3.9158915613        3.8585522085      -25.5197975386
 H        -1.9295624074        1.1862330382      -23.8908221103
 H        -3.5656577326        0.8728553280      -23.5805893393
 H        -2.4654449062        1.3914837434      -22.2739756677
 H        -1.1770998616        9.3151613586      -20.9939947500
 H        -2.6500865199        8.1341459831      -21.1711513949
 H        -1.4101058834        8.2747333780      -22.3957276582
 H         1.4601618630        6.7745645976      -20.8360380163
 H         1.2774678300        7.9409755692      -19.6881338104
 H         1.0397365422        8.4813806995      -21.3343089808
 H        -6.5616199677        5.2391516365      -17.2395858541
 H        -6.8709444339        6.3892295652      -16.0350924740
 H        -6.6528935605        4.7861185334      -15.4917530209
 H        -3.5434063784        6.3766851815      -14.2783573035
 H        -5.0061519778        5.3640615221      -13.9705182652
 H        -5.2398795407        7.0680762914      -14.3112802535
 H        -0.9325598623        0.2790675474      -11.2082053626
 H        -2.6437108439        0.4059700283      -11.0072191368
 H        -1.5577831744        1.7549902847      -10.8166224013
 H        -0.6265208692        1.7314549104      -14.6782502019
 H         0.1874654807        0.6973378058      -13.4275072214
 H        -0.1535662524        2.2705713725      -13.0839902615
 H         0.1394468520       -3.5948945138      -11.6495080147
 H        -0.3392512901       -4.8012992693      -12.7926030202
 H        -0.0826779210       -5.4649033318      -11.0905412186
 H        -2.8699738969       -5.2434824259      -13.0537666951
 H        -3.8555420622       -5.3221505388      -11.6146444231
 H        -2.3798942938       -6.3864190577      -11.8585340204
 H        -5.6047437260       -6.6706661190       -5.0172914878
 H        -4.8739969550       -6.5288212885       -6.5217863127
 H        -6.4470708328       -5.7208150389       -6.3364891355
 H        -5.6968553800       -2.8384858613       -4.7698010229
 H        -5.9974769493       -4.2469309161       -3.7861105705
 H        -6.9653089518       -3.7912731446       -5.2348765928
 H        -3.7503464379       -4.2397423910        1.7771088634
 H        -4.2034659868       -4.7308302922        0.0586354094
 H        -4.3962241873       -3.0532982683        0.6109913525
 H        -1.9046187527       -1.2938023774        0.3078586603
 H        -0.7750738466       -2.4238530703        1.1288677426
 H        -2.3041016552       -2.2135042912        1.8717008250
 H         2.8903705477       -6.8088569174        2.1630908587
 H         4.4851996284       -7.3947169885        1.3853909470
 H         3.3726200990       -8.4897255421        2.0363622718
 H         4.8061673541       -8.3348973306       -0.6319544910
 H         3.5750827201       -8.4343963422       -1.8599309442
 H         3.6547914990       -9.6753851886       -0.6897304361
 H        -0.8839403904      -13.7571031977       -1.0599191123
 H        -1.1569278639      -14.2724229826        0.6960251315
 H         0.0760647147      -13.1681442681        0.3005060331
 H        -3.0178981121      -12.6858042477       -1.4103617475
 H        -3.8107837787      -11.6226582635       -0.2238537914
 H        -3.6884546290      -13.4002828259        0.1482828850
 H         0.5175932397       -9.8172557602        4.1410818280
 H         0.5849076180       -8.9509228320        5.5682459304
 H         0.4181159290       -8.1675638740        3.9863518798
 H        -2.0557025479      -10.5281452041        6.3743880447
 H        -2.6759297486       -8.9375677078        6.6401944242
 H        -0.9715055028       -9.2698850986        6.9170165030
 Na       -1.4124512725       -7.9795490236        1.3608763649
 Na       -3.5806490575        4.6468102684      -19.4319267956
