232

 C        -2.3454804259       -6.6965691137        5.8676023764
 C        -2.0137017028       -7.6038205789        4.6570073292
 O        -2.1007257785       -7.0992840422        3.5605051595
 C        -1.4030443012       -8.9794291988        4.7711021239
 C        -2.1277266540       -9.9345427858        3.7651298153
 O        -2.0900546673       -9.6511760376        2.5823715103
 C        -2.8007727845      -11.1694937783        4.2023000270
 C        -3.1050944380      -12.0439318514        2.9752044017
 C        -1.8090508663      -12.1749471790        2.0928003616
 O        -0.8325466876      -12.3805123446        2.8028365507
 C        -1.7580283843      -12.2215563565        0.4059294482
 C        -1.0737971067      -11.0044258065       -0.1675833789
 O        -1.7126887295       -9.9720965571       -0.2135375158
 C         0.5097870476      -10.9952636686       -0.3928300016
 C         0.8779427286       -9.5717669880       -0.8406062679
 C         1.4003023657       -8.7019580874        0.3402874437
 O         0.7512536364       -8.5941888054        1.4012008646
 C         2.6059112447       -7.7785462545        0.0456169986
 C         1.9844262922       -6.4360854748       -0.5989048381
 O         2.3675434429       -6.1231975333       -1.7633420435
 C         1.2844552128       -5.4466160389        0.3582647087
 C         0.1510307524       -4.6784169834       -0.2842021266
 C        -1.3412033406       -4.8920922854        0.1926641207
 O        -1.7362924393       -6.0334799781        0.3169782489
 C        -2.2540322731       -3.6202169053        0.1300030446
 C        -2.6464764501       -3.2613214622       -1.4894995029
 O        -2.8010216793       -2.1161689497       -1.6996432378
 C        -3.0401889181       -4.4406674415       -2.4756182144
 C        -3.0855821573       -3.9673608588       -3.9266439419
 C        -3.6297327388       -5.0917964655       -4.8265429268
 O        -3.0026257305       -6.1811090088       -4.9243073745
 C        -4.9569445540       -4.7225151955       -5.4839116282
 C        -4.4208947328       -3.9465625164       -6.8557516971
 O        -4.8192317808       -2.8448385960       -7.1204240859
 C        -3.4843794002       -4.6646330791       -7.8707329740
 C        -2.8936994612       -3.6995597355       -8.9374085372
 C        -1.9211543504       -4.6219234808       -9.8353340284
 O        -1.3925791201       -5.5988437686       -9.3289055512
 C        -1.9034311021       -4.3043029884      -11.3859548905
 C        -2.3126284424       -2.7700951449      -11.6317600994
 O        -1.8338257670       -1.9137606070      -10.8816289689
 C        -3.2848742789       -2.3744501371      -12.8739105569
 C        -3.6229756298       -0.9206821670      -13.0133995470
 C        -2.3869069494       -0.2247553473      -13.5914477836
 O        -1.8463612445       -0.6867967744      -14.5644394088
 C        -1.8079068085        1.1495155325      -12.9799576822
 C        -3.0807913116        2.2097957692      -13.1998790082
 O        -4.0421906382        2.1180286409      -12.5222024293
 C        -2.8817983450        3.1979086739      -14.3502541590
 C        -4.2998936767        3.5071686741      -14.8549602643
 C        -4.2246210536        4.3814630940      -16.2096948632
 O        -3.6313226955        3.8561920110      -17.1772258034
 C        -4.8190620906        5.8297045740      -16.1141784880
 C        -4.1363639190        6.6195893839      -17.3084079274
 O        -4.6882649662        6.5949574535      -18.4123768716
 C        -2.8245577445        7.2793695365      -17.0021413593
 C        -2.3440654030        8.0609205941      -18.2396060911
 C        -1.3995965674        7.1191530125      -19.0158528518
 O        -0.8634210770        6.1815747859      -18.4891268851
 C        -0.8211209573        7.3285786100      -20.4933979976
 C        -1.0445852786        5.9061769673      -21.1507186393
 O        -2.0640807593        5.3296025721      -20.7750948582
 C        -0.1658178900        5.2961033406      -22.2549047728
 C        -0.8317212134        3.8446595323      -22.5080048010
 C        -2.2042832466        4.0901875655      -23.2398403863
 O        -2.5238056938        5.1649348890      -23.6439193678
 C        -3.1316713039        2.8601767948      -23.3809460695
 C        -4.1516942890        3.3037825903      -22.3346338174
 O        -3.9477762972        3.0078446058      -21.1959512877
 C        -5.2505032566        4.3612969720      -22.6027648883
 C        -5.9932891271        4.9183321632      -21.3640104687
 C        -6.5975217258        3.9630506240      -20.2795835925
 O        -5.8719276701        3.5576402255      -19.3821862177
 C        -8.1509494818        3.9141672332      -20.2679715004
 C        -8.7671736025        2.6883374637      -19.5815125121
 O        -9.8513677774        2.2558322843      -19.8862887699
 C        -8.0803052644        2.2424130497      -18.3154904034
 C        -9.0387152924        1.6673260693      -17.2741421800
 C        -8.7660501742        2.4474726396      -15.9369983495
 O        -7.6248198121        2.7479424751      -15.6422970889
 C        -9.9442976367        3.0386659650      -15.0023881561
 C       -10.5439095772        4.4410107520      -15.5007686050
 O       -10.1229315112        5.4570412162      -15.1177426544
 C       -11.6137736748        4.4231930703      -16.6880676803
 C       -11.0699973706        2.0167217399      -14.8224494223
 C        -9.3473778815        3.2911934848      -13.5712073114
 C        -8.4950012807        5.1806082752      -19.4563390375
 C        -8.7797647362        4.0752413417      -21.6997374617
 C        -3.9009080964        3.0210626505      -24.8282218541
 C        -2.4590089237        1.5157033471      -23.2368076480
 C        -1.2652178494        8.5500319847      -21.3795732726
 C         0.7435295397        7.3953839510      -20.3068998118
 C        -6.3193327011        5.8577124333      -16.5094662692
 C        -4.6238649953        6.5269614224      -14.7519825575
 C        -1.5919161256        0.9639074664      -11.3726129218
 C        -0.4223537754        1.4760499131      -13.6225634557
 C        -0.4495575393       -4.4421240393      -11.9804657527
 C        -2.8410489370       -5.3825430408      -11.9935298432
 C        -5.6558623403       -6.0235858370       -6.0094752681
 C        -5.7668735034       -3.7480257253       -4.6800673252
 C        -3.6602201136       -3.8124001803        0.7646354935
 C        -1.5145358780       -2.4510384297        0.7055023812
 C         3.3263251619       -7.3730116755        1.4258794314
 C         3.5779942214       -8.3701640213       -0.8704135707
 C        -1.0258457647      -13.5120192542       -0.0360202140
 C        -3.3110795564      -12.4349179322       -0.0740037518
 C         0.1213394939       -9.1064752024        4.4796592987
 C        -1.5972677163       -9.5504026687        6.1836372321
 H        -3.4114508580       -6.5078564331        6.0478807119
 H        -1.9773957971       -5.6758667597        5.5836641288
 H        -1.7666027811       -6.8580016626        6.7275442049
 H        -3.6868676329      -10.9592069426        4.7921810674
 H        -2.1487803454      -11.8798535894        4.7365930718
 H        -4.0153890248      -11.7182201653        2.5362748142
 H        -3.3056538540      -13.1529660761        3.1972391026
 H         0.8060200749      -11.7174284078       -1.2568602297
 H         0.9771067292      -11.1545714062        0.6062826630
 H        -0.0044112712       -9.1257378007       -1.2384651677
 H         1.5759399875       -9.6479038980       -1.6534213519
 H         2.0493515224       -4.8871872058        0.8632818375
 H         0.9081569036       -6.1064355657        1.1374533277
 H         0.0320718699       -4.9224750207       -1.3475027055
 H         0.4447168688       -3.6324910352       -0.4029550283
 H        -4.0489534886       -4.7404967712       -2.1071123553
 H        -2.2922158452       -5.2091078319       -2.4138022181
 H        -2.0460478185       -3.5345302919       -4.1731704165
 H        -3.7291338135       -3.1809798323       -4.1143289475
 H        -4.0052628789       -5.4979673559       -8.3123071787
 H        -2.7091167850       -5.0874568104       -7.3591495310
 H        -2.3501600545       -2.8621460351       -8.5377077507
 H        -3.4814873260       -3.1728014063       -9.7127708831
 H        -4.1206386312       -2.9812248122      -12.5995689020
 H        -2.8886896127       -2.8376435429      -13.8635675840
 H        -3.9974841803       -0.5754208516      -12.0379397175
 H        -4.3858129016       -0.8941561805      -13.6853540735
 H        -2.3451949228        2.8131548661      -15.2114139135
 H        -2.5264914034        4.1719476211      -14.0340866629
 H        -4.8882732852        4.0362334948      -14.0347099703
 H        -4.8149236672        2.6138711378      -15.1337710946
 H        -2.1472738601        6.4568129305      -16.6510350752
 H        -2.9697892555        7.8948267137      -16.1031148444
 H        -1.8864037757        8.9779949144      -17.9149906829
 H        -3.1970851313        8.2033707146      -18.9761197450
 H         0.8491258551        5.0608248645      -21.9818592295
 H        -0.2104563139        5.7325919553      -23.2433997979
 H        -1.2927908068        3.3660683288      -21.5873261702
 H        -0.3323993439        3.0999935030      -23.1718639062
 H        -5.9284795625        4.0364267889      -23.3476897439
 H        -4.7343209431        5.2122294838      -23.0530913632
 H        -6.7794665557        5.5788879786      -21.7548781919
 H        -5.2137557215        5.5024349818      -20.8127297226
 H        -7.4517387020        3.0028282174      -17.9157285371
 H        -7.4091904599        1.3991056602      -18.5969087947
 H        -8.8534844749        0.6430270780      -17.0785442271
 H       -10.0674746126        1.7942943026      -17.6533858282
 H       -12.5503876094        4.7577656125      -16.2526580084
 H       -11.7527923372        3.5277529225      -17.3188706735
 H       -11.2934353795        5.1088776773      -17.3916084894
 H       -11.9346741150        2.4317078244      -14.3394716767
 H       -10.5817252174        1.1120403604      -14.3324310188
 H       -11.4265898988        1.6849548792      -15.7744976076
 H        -9.0542722236        2.4623536895      -12.9670182227
 H       -10.1589659970        3.6878062729      -12.9884178594
 H        -8.6505157887        4.0530937910      -13.4324981958
 H        -7.8772314036        5.3145328135      -18.5471754222
 H        -9.5492809017        5.1442170835      -19.0282973839
 H        -8.3078444273        6.0553825767      -20.1618013731
 H        -8.3634239043        3.4736187336      -22.4642308660
 H        -8.7775260043        5.0965888789      -22.0259450881
 H        -9.7953210842        3.8336151720      -21.4236948022
 H        -4.9482502273        2.7570884578      -24.7563627757
 H        -3.5059239492        2.4905948922      -25.6516409706
 H        -3.9246351328        4.0465178926      -25.0663314992
 H        -1.6288299902        1.3650212838      -23.8980842674
 H        -3.1585851231        0.7024709215      -23.5692234697
 H        -2.0558449291        1.3371159811      -22.2414284616
 H        -0.7976361642        9.4588254832      -21.0721451857
 H        -2.3389327096        8.6155278756      -21.3538855267
 H        -0.8851344618        8.4239063881      -22.3225669495
 H         1.2023728208        6.4093060266      -20.1795581078
 H         1.1415565726        7.9932607956      -19.4069618225
 H         1.1326388386        7.9242037093      -21.1606729097
 H        -6.4205341833        5.5134703361      -17.5362441756
 H        -6.7062671503        6.9045274579      -16.6664264081
 H        -6.9156824635        5.3199546839      -15.7765695916
 H        -3.5226037221        6.3632777788      -14.4490135214
 H        -5.2615788830        6.2033350930      -13.9788100124
 H        -4.9764082867        7.4968857796      -14.9431027152
 H        -1.2764489457       -0.0076218084      -10.9845904665
 H        -2.5101590510        1.3332543969      -10.8204028506
 H        -0.6837772677        1.5877081471      -11.1346211254
 H        -0.4650898753        1.4511166244      -14.6860337684
 H         0.2481668623        0.6634748698      -13.3083469426
 H         0.1270294983        2.3986920205      -13.3255396519
 H         0.1924836849       -3.7649961597      -11.4762693950
 H        -0.4025076248       -4.1290229718      -13.0693343350
 H        -0.1624258451       -5.4473231177      -11.8533497983
 H        -2.8484895341       -5.3811155259      -13.0534751592
 H        -3.8265085002       -5.1261653717      -11.6239647925
 H        -2.5245515027       -6.3586129907      -11.6072457929
 H        -5.6751754153       -6.7211232471       -5.1726093784
 H        -4.9373285797       -6.5979636357       -6.6186431058
 H        -6.6146909816       -5.7529298436       -6.4429427449
 H        -5.6258246280       -2.7057440295       -5.1547486216
 H        -5.6513586326       -3.7117980104       -3.5873364570
 H        -6.8396399674       -3.9250842334       -4.8293200731
 H        -3.5165409864       -3.5894233286        1.7993668780
 H        -3.9130270689       -4.8630609138        0.7027558892
 H        -4.5143406878       -3.2459130042        0.4354753966
 H        -1.7155159983       -1.6325644586       -0.0169811288
 H        -0.4147187621       -2.6397225729        0.8300637979
 H        -1.8046507153       -2.2145012887        1.7634100802
 H         2.8975048896       -6.6240901610        1.9744683698
 H         4.3664650567       -7.1053652563        1.1137270710
 H         3.5696246056       -8.2319283425        2.1170004387
 H         4.4868207841       -7.7252069063       -0.9868367056
 H         3.1101782771       -8.4931851574       -1.8592016820
 H         3.8978624165       -9.3942647154       -0.5810289553
 H        -0.6079342393      -13.3086251577       -1.0004324735
 H        -1.6767253996      -14.3576378443       -0.0795762935
 H        -0.2159117065      -13.6528415357        0.6814238035
 H        -3.3768443346      -12.6489337796       -1.1376989982
 H        -3.8817309898      -11.5116433009        0.1138240949
 H        -3.7376102821      -13.2316532603        0.4990841635
 H         0.3597941624       -9.9473634458        3.8154541268
 H         0.7507786497       -9.2753757883        5.3587256144
 H         0.5178084317       -8.1833530213        3.9739289325
 H        -0.7423703867      -10.2575180350        6.4084981315
 H        -2.5056518543      -10.1008859163        6.3651080853
 H        -1.5159304119       -8.8099119298        7.0126846068
 Na       -1.3000274247       -7.9160094963        1.3229389506
 Na       -3.8201610715        4.6939049964      -19.2882877415
