232

 C        -2.0750221602       -6.7770570162        5.9593678259
 C        -1.8147097623       -7.4801423920        4.6849062613
 O        -1.8120523379       -7.0215977396        3.5708120885
 C        -1.3737764021       -9.0285972383        4.8536943231
 C        -2.1931714872       -9.9342038512        3.8744754748
 O        -2.3990776453       -9.5945211443        2.7058098131
 C        -2.7969825575      -11.2631345758        4.3546425693
 C        -3.0325652770      -12.1487455884        3.1005027111
 C        -1.7554848984      -12.1940196998        2.1932358840
 O        -0.7333183847      -12.6537930318        2.6877345277
 C        -1.8817043554      -12.2536973090        0.5693706490
 C        -1.0061409380      -11.0341733253        0.0071463019
 O        -1.5777128099       -9.9318291894        0.0587337201
 C         0.5607531341      -11.1138180766        0.0198935319
 C         1.3473708434      -10.0166405081       -0.6836662901
 C         1.6480448465       -8.8772231185        0.2570805774
 O         0.9492641044       -8.6968391205        1.2735785898
 C         2.7131692554       -7.7210108703       -0.0119547432
 C         1.8923120619       -6.5462204020       -0.7379793690
 O         1.6141472715       -6.6151295528       -1.9546131502
 C         1.2916691664       -5.4046955573        0.1367567006
 C         0.3332369224       -4.4602068938       -0.6013340397
 C        -1.1054699097       -4.8088149178       -0.2071632879
 O        -1.4629507681       -5.9894440631       -0.0518619516
 C        -2.1255448710       -3.6387743894        0.0567620379
 C        -2.7298860113       -3.3322590976       -1.4900692837
 O        -2.7907821268       -2.2027491088       -1.8132729881
 C        -3.1628939873       -4.5685333257       -2.3815021372
 C        -3.0830847104       -4.0893950995       -3.8782953001
 C        -3.7700960869       -5.2025651270       -4.6550049411
 O        -3.2815058418       -6.2970687957       -4.8810538485
 C        -5.0573303146       -4.7685765366       -5.5942426917
 C        -4.2950382144       -3.9604656010       -6.7135357603
 O        -4.3298744062       -2.7196420322       -6.8430763304
 C        -3.6478263103       -4.8424269949       -7.9610092860
 C        -3.1982231914       -4.0323383868       -9.1168604758
 C        -2.0321809792       -4.6470766522       -9.9689310089
 O        -1.1285027923       -5.2825786222       -9.4576250878
 C        -1.9946194813       -4.2769872839      -11.5544752387
 C        -2.3583985255       -2.7150521068      -11.7408985601
 O        -1.9065726095       -1.9304655715      -10.8838195179
 C        -3.3097494454       -2.1798773558      -12.7683718313
 C        -3.3322468952       -0.6573189751      -12.7668563746
 C        -2.1316643240       -0.0857999504      -13.4711046574
 O        -1.6366494318       -0.6392972737      -14.4268400162
 C        -1.6868605190        1.3509575052      -12.9444031251
 C        -2.9311402195        2.2454053290      -13.1259490240
 O        -3.9030239093        2.2201336861      -12.4613161358
 C        -2.9642005246        3.0909748077      -14.4019342486
 C        -4.1794209489        3.9412692291      -14.6091381223
 C        -4.1206145379        4.6836277753      -15.9936943333
 O        -3.7082437058        4.0719725864      -16.9371971788
 C        -4.7674266909        6.1267676334      -16.1503266816
 C        -4.1844641635        6.8671370824      -17.4156526353
 O        -4.4872278478        6.5068657340      -18.5298949862
 C        -3.1592617473        7.9365184489      -17.1571536898
 C        -2.1845327975        8.2539533962      -18.2987408406
 C        -1.2178835389        7.0187941945      -18.7366389396
 O        -1.0513228244        5.9948746119      -18.1161181238
 C        -0.6418501118        7.2011796885      -20.2161319226
 C        -1.2665395140        5.9810754731      -21.0327980450
 O        -2.4696168909        5.8243475554      -20.9294492671
 C        -0.3070710434        5.1326292225      -21.8085128601
 C        -0.8012266677        3.8670564265      -22.6015009165
 C        -2.1806957937        4.1396309450      -23.2536368702
 O        -2.4982156572        5.1669580749      -23.7755134497
 C        -3.1893496704        2.9359169972      -23.4024204351
 C        -4.1210039144        3.2614478247      -22.2378229796
 O        -3.7390497134        2.8744293969      -21.1424576610
 C        -5.6122570580        3.8459697573      -22.5291232066
 C        -6.1755352717        4.9177953032      -21.5640479321
 C        -6.8743352049        4.1290646834      -20.4246272383
 O        -6.2338310465        3.5487003830      -19.5377344494
 C        -8.4498233476        3.9673831424      -20.4028653572
 C        -9.0760347963        2.5291464415      -19.7413060447
 O       -10.1753886542        2.2736096882      -20.1529237686
 C        -8.3337204018        1.8884718065      -18.5006699893
 C        -9.2816132600        1.8249566555      -17.3006530044
 C        -8.7580582241        2.4869058245      -16.0392709002
 O        -7.5636078840        2.5432230669      -15.8870791896
 C        -9.7279382866        3.0886258341      -14.9158343305
 C       -10.2816414570        4.3719515706      -15.6277336675
 O        -9.6490622313        5.3715649358      -15.5135758968
 C       -11.6508190474        4.3850147121      -16.4481462407
 C       -10.8248769470        1.9429764379      -14.5900524535
 C        -9.0682512281        3.5226807407      -13.5942008128
 C        -9.0965584265        5.2460688734      -19.5732207439
 C        -9.0393018458        3.9149077543      -21.7951379639
 C        -3.8082541962        2.8508163255      -24.7692585888
 C        -2.5010658152        1.5931560260      -22.9876095936
 C        -1.2327836614        8.4618534941      -21.0604099878
 C         0.9296506209        7.3020402337      -20.2267310317
 C        -6.2714087314        5.7792381943      -16.4813846742
 C        -4.7331647523        7.0376528778      -14.9205658490
 C        -1.3349394224        1.1956389756      -11.4494904238
 C        -0.4398600917        1.8594067829      -13.7790199241
 C        -0.5485180904       -4.4401492273      -11.9876499937
 C        -2.9853007952       -5.1317713403      -12.3233495361
 C        -5.5965942775       -6.0864093970       -6.0892477534
 C        -6.0377374106       -3.8544966020       -4.8339545118
 C        -3.1533360472       -4.3388635578        1.0298518062
 C        -1.5603851210       -2.3443114736        0.5341288746
 C         3.3262606327       -7.3782008300        1.3093701065
 C         3.8354773944       -8.1019920431       -1.0637713654
 C        -1.3327321354      -13.6396106152        0.2251575719
 C        -3.3186473473      -12.1388782031        0.0511130074
 C         0.1263800589       -8.9595604244        4.3707730343
 C        -1.3522195532       -9.5586920014        6.3549904960
 H        -3.0234254062       -7.1570172834        6.5118393033
 H        -2.3438178251       -5.7000222314        5.8319218134
 H        -1.1810788769       -6.8768994973        6.5472511588
 H        -3.7452962359      -11.2026492833        4.8198928271
 H        -2.1377599243      -11.8919198339        4.9423203207
 H        -3.9197277631      -11.9009923068        2.6173853277
 H        -3.1867499290      -13.1561941656        3.4049215632
 H         0.8768723839      -12.0768148659       -0.3660259302
 H         0.6375098166      -10.9042891853        1.0736992060
 H         0.8065272735       -9.5830226708       -1.5495496553
 H         2.3595682633      -10.4388119917       -1.1087642172
 H         2.2029268284       -4.9037015040        0.6113399042
 H         0.8774773195       -6.0580695522        0.9561151963
 H         0.3901863012       -4.7103294526       -1.6704706541
 H         0.6417103180       -3.4069531834       -0.5263379095
 H        -4.2550415901       -4.7380264428       -2.1351839283
 H        -2.5549496334       -5.3633863943       -2.0818635605
 H        -1.9952272166       -4.2495779659       -4.2275721634
 H        -3.4394627552       -3.0544429164       -4.0138747161
 H        -4.2817419964       -5.7045932212       -8.3110231094
 H        -2.8382204597       -5.4282138744       -7.4614932799
 H        -2.8540950089       -3.0310877166       -8.8478852285
 H        -3.9686754381       -3.9890582298       -9.9207547871
 H        -4.2539263200       -2.5902215159      -12.5209095532
 H        -3.0099848814       -2.5789618755      -13.7432483195
 H        -3.5560576720       -0.2746354467      -11.7287953257
 H        -4.2585653896       -0.5104639131      -13.3855001475
 H        -2.8166656755        2.4447424708      -15.3441968732
 H        -2.1062083820        3.8006404636      -14.3986058994
 H        -4.2764449935        4.6334785381      -13.6829592885
 H        -4.9656522994        3.2872124684      -14.7053876186
 H        -2.6806632375        7.7767637680      -16.1719138687
 H        -3.8007129301        8.7970706086      -16.9923298528
 H        -1.5220099531        9.0775153311      -18.0556580974
 H        -2.8903578874        8.4388160523      -19.1567368749
 H         0.4919781467        4.5684061346      -21.2980553861
 H         0.1294166177        5.8675220959      -22.6022676905
 H        -0.9875576690        3.1401033924      -21.8613793100
 H        -0.1993566707        3.5804790216      -23.4281801499
 H        -6.2881142919        2.9157384030      -22.4969377297
 H        -5.6307149291        4.2487885946      -23.5182707796
 H        -6.8509559022        5.5866155257      -22.0729792248
 H        -5.3969742729        5.5734803472      -21.0170601967
 H        -7.4201528443        2.4647522183      -18.1642054245
 H        -8.0065529537        0.9368212448      -18.7861187142
 H        -9.3844384752        0.7752102250      -17.0863537702
 H       -10.3697418500        2.1425320717      -17.4810215487
 H       -12.4610357957        4.1081284298      -15.7189628926
 H       -11.7470878578        3.7567751989      -17.3564115645
 H       -11.7499264346        5.2975997637      -16.9448104750
 H       -11.1112092567        1.9178658742      -13.5703796773
 H       -10.4147581952        0.9717020297      -14.8990930661
 H       -11.7976671920        2.0222462821      -15.0984882425
 H        -8.5364416444        2.6918104301      -13.1518905760
 H        -9.7326761309        3.7654352672      -12.7088119936
 H        -8.3630881946        4.3884907395      -13.6676085879
 H        -9.2100028193        5.0286052735      -18.5575495652
 H       -10.1681352924        5.3418238438      -19.9186982985
 H        -8.4522579023        6.0828607450      -19.6878815244
 H        -8.5187446811        3.0284120855      -22.2877295941
 H        -8.8657926132        4.8305996158      -22.3352253303
 H       -10.1043142087        3.6159673957      -21.7300635635
 H        -4.2281678792        1.8538057962      -25.0215754025
 H        -3.1018144302        3.1008284676      -25.5674240484
 H        -4.6502750906        3.5465365682      -24.8660573028
 H        -1.6364744297        1.4157153708      -23.6103732474
 H        -3.1750568499        0.6794626825      -23.1612986555
 H        -2.2537062592        1.3962573914      -21.9695359853
 H        -1.1092817817        9.4728094509      -20.5060336846
 H        -2.2999512560        8.4160066393      -21.2377821407
 H        -0.5708600526        8.5137105369      -21.8956491860
 H         1.3719936393        7.2564470372      -19.2221637842
 H         1.1348414810        8.2850887702      -20.6722053568
 H         1.4077614139        6.6253831016      -20.8621135593
 H        -6.3233318667        5.1284900784      -17.3614850396
 H        -6.8189132223        6.6240980037      -16.8172692467
 H        -6.6753517652        5.2794346073      -15.6285908196
 H        -3.6917089505        7.2133908434      -14.6169113801
 H        -5.2391797523        6.6900075621      -14.0426834211
 H        -5.3636654345        7.8647098492      -15.2086523059
 H        -0.4606745608        0.6209241904      -11.3892536485
 H        -2.0898112490        0.8251564874      -10.7981863519
 H        -1.0908178305        2.1955181013      -11.1190385244
 H        -0.5190527724        1.6664785914      -14.8176156378
 H         0.4970367377        1.3837323804      -13.4763846803
 H        -0.2810063372        2.9532102546      -13.7070879850
 H         0.0838973211       -3.8133057197      -11.3758942196
 H        -0.4159629761       -4.3122679687      -13.1581781221
 H        -0.1999136099       -5.4715674037      -11.7331796218
 H        -2.9040561706       -4.7115898753      -13.3549992872
 H        -3.9942275195       -5.0473871744      -11.9538579822
 H        -2.7045856918       -6.1979775194      -12.2751308859
 H        -6.3015994641       -6.4965499973       -5.3296049351
 H        -4.7319889739       -6.7385782374       -6.1458817182
 H        -6.0325306971       -5.9487420870       -7.0463469741
 H        -5.4676215671       -3.1451409526       -4.1917350973
 H        -6.6435093370       -4.4167500598       -4.1310801148
 H        -6.7458622348       -3.4269571798       -5.4601339799
 H        -2.7304150539       -4.9569944439        1.7992519353
 H        -3.7372338806       -4.9279514603        0.2684533836
 H        -3.9629144935       -3.6304651093        1.3665314169
 H        -2.3324267968       -1.6195015970        0.3742060237
 H        -0.5587185007       -2.2050977426        0.2081589741
 H        -1.4921417485       -2.4722107546        1.6494712139
 H         2.6426930194       -7.8091554000        1.9969103133
 H         3.4437952395       -6.3630211728        1.6382868868
 H         4.3672993393       -7.7700199818        1.4422234153
 H         4.5373538818       -7.3262815348       -1.0500711669
 H         3.5240987938       -8.3321714610       -2.0703995212
 H         4.4087607215       -8.9527184812       -0.7326284870
 H        -1.5788537855      -13.8885095713       -0.7704463515
 H        -1.9175909051      -14.3638455149        0.8128686581
 H        -0.2315279104      -13.6513050344        0.4535144943
 H        -3.3043239137      -12.1633778987       -1.0229954528
 H        -3.7883055639      -11.1815829525        0.3675756821
 H        -3.8578161930      -13.0353785449        0.3704770344
 H         0.6397012890       -9.7948591700        4.8043952914
 H         0.6060292450       -8.0538277984        4.7627694894
 H         0.3362576647       -8.8742078416        3.3268318126
 H        -1.2777240140      -10.6379241975        6.3858468075
 H        -2.1809043397       -9.2368458104        6.9147966919
 H        -0.4750057005       -9.2016689275        6.9284191584
 Na       -1.5170332623       -7.9588146422        1.2782480004
 Na       -3.9859448483        4.2370389672      -19.2595815242
