232

 C        -2.0615839716       -6.6225879384        5.6939600386
 C        -1.5084315485       -7.4446904987        4.6017456396
 O        -1.5454344649       -6.9076591439        3.4989819821
 C        -1.1925555461       -8.9937792672        4.8942606397
 C        -2.1795466575       -9.8369096292        4.0001419306
 O        -2.6295800770       -9.4542018974        2.9190995464
 C        -2.3928541850      -11.3177106787        4.4036430919
 C        -2.8931274279      -12.1269478071        3.1615733981
 C        -1.7012867645      -12.3167745616        2.2358364891
 O        -0.6000022077      -12.3777726448        2.7918100307
 C        -1.8328912678      -12.2727667729        0.5939562514
 C        -0.8053910998      -11.0930195717        0.2108002238
 O        -1.3774416606       -9.9790863837        0.1719706452
 C         0.6719903253      -11.4108880678        0.2965678316
 C         1.5385374599      -10.2849997083       -0.1886374258
 C         1.5737226236       -8.8530316015        0.3901746897
 O         0.8151413333       -8.4424281274        1.2701661402
 C         2.7337900623       -7.9142688290       -0.2054681570
 C         1.7884021480       -6.7802151572       -0.9509284251
 O         1.1439991461       -7.1255711065       -1.9542739774
 C         1.6690026895       -5.3842744678       -0.3347893701
 C         0.4582045848       -4.4221308796       -0.6902212453
 C        -0.9455979482       -4.8916676528       -0.1438577439
 O        -1.0939743619       -6.0973255389        0.0893979815
 C        -2.0588487270       -3.8501753314        0.0519340308
 C        -2.6657308286       -3.3895006152       -1.4638684710
 O        -2.7411036070       -2.2533794540       -1.7570002263
 C        -3.5772679430       -4.4036560089       -2.3537389105
 C        -3.2572702948       -4.2427385647       -3.7911857961
 C        -3.9738708666       -5.4658467354       -4.6388834370
 O        -3.5155361851       -6.5390712968       -4.6121887522
 C        -5.0301175943       -4.9204734816       -5.6898536909
 C        -4.1510580226       -4.2540673548       -6.8300321994
 O        -3.8621232117       -3.0449344506       -6.7168227797
 C        -3.5859356220       -5.0413097446       -8.0845913753
 C        -3.5132443178       -4.1146836055       -9.3628349268
 C        -2.2023086070       -4.5160416621      -10.0615685189
 O        -1.3250686758       -5.1384886359       -9.4649645911
 C        -2.0908856252       -4.1396473045      -11.5680273128
 C        -2.3543310944       -2.5630845743      -11.6570216698
 O        -1.8026157535       -1.8453582913      -10.8182578066
 C        -3.2616729127       -2.0571194405      -12.7802554714
 C        -3.2260956417       -0.5372659469      -12.7873846697
 C        -1.9835968257        0.0171345914      -13.3657876420
 O        -1.3287189328       -0.5772385268      -14.1942393854
 C        -1.5595417718        1.5194327236      -12.9249188307
 C        -2.7880310812        2.4523771523      -13.2211531307
 O        -3.6585880715        2.5228647331      -12.3918381096
 C        -2.9012210095        3.2350967864      -14.5335888764
 C        -3.7946645420        4.5851654312      -14.4828238021
 C        -4.1262786825        4.9134940547      -15.8724426213
 O        -3.7689704245        4.2360259559      -16.7847172978
 C        -5.0215711700        6.2525326762      -16.2170764039
 C        -4.1622813460        7.0210921940      -17.4389654865
 O        -4.0292723604        6.5369842840      -18.5358533684
 C        -3.2725076610        8.2294013055      -17.0799069790
 C        -2.3535000824        8.6433000317      -18.2306461874
 C        -1.4637247168        7.3472776633      -18.6656423172
 O        -1.2807539692        6.5265918222      -17.7697237195
 C        -0.8033167770        7.1656095521      -20.0525939968
 C        -1.2928226999        5.8717794764      -20.8761512263
 O        -2.3751924959        5.3817585261      -20.7149772315
 C        -0.4267604841        5.2206915361      -21.8609683065
 C        -0.9788650012        3.8141132919      -22.3146838894
 C        -2.1664811812        3.9434964501      -23.3997712227
 O        -2.3445552484        4.8952546111      -24.0900081998
 C        -3.2445683385        2.7570647642      -23.5261319265
 C        -4.2548213293        3.1467701324      -22.3983950722
 O        -3.9127007262        3.0499987622      -21.2262424100
 C        -5.6977557124        3.5403740809      -22.6748846620
 C        -6.2358598488        4.4854661894      -21.5150434168
 C        -7.1614988182        4.0116275929      -20.4194184384
 O        -6.7049502808        3.9938754561      -19.2617833118
 C        -8.7285472956        3.7997101064      -20.5038164757
 C        -9.3571346852        2.5190082252      -19.8085308133
 O       -10.4445398639        2.1732651559      -20.2036968588
 C        -8.6201469628        1.8316250034      -18.6237063456
 C        -9.4145452934        1.7953165143      -17.3693674772
 C        -8.6690850432        2.4600535929      -16.2047393307
 O        -7.4867103074        2.6960087719      -16.1323132344
 C        -9.5881293895        3.0857222327      -14.9862277314
 C       -10.1405648419        4.3437953107      -15.6271304674
 O        -9.3816013905        5.1827835814      -16.1813354549
 C       -11.6688793762        4.5003642654      -15.8671692838
 C       -10.6767518499        2.0852498804      -14.5164605685
 C        -8.5554094539        3.4189419209      -13.7959243899
 C        -9.2642842707        5.0439324126      -19.7680661247
 C        -9.2196964059        3.8660842128      -21.9569426977
 C        -3.8972502942        2.7777679609      -24.8993093035
 C        -2.5792460417        1.4469022898      -23.1721463893
 C        -1.0421608010        8.3861690275      -21.0764117781
 C         0.7345157277        7.0884557906      -19.6250368000
 C        -6.4399681770        5.8694657708      -16.6118231325
 C        -5.0567114044        7.0374716339      -14.8778237320
 C        -1.2342296551        1.5900960747      -11.4181788590
 C        -0.2845965271        1.8123007135      -13.7864282762
 C        -0.6057031783       -4.4166899217      -12.0579547830
 C        -3.1175590087       -4.9695028132      -12.3290323548
 C        -5.8057846554       -6.1376410615       -6.3027770310
 C        -5.9942430245       -3.9219806060       -5.1498637042
 C        -3.3111130518       -4.4831594620        0.6657701045
 C        -1.5386128533       -2.5891250070        0.6998509186
 C         3.5191555298       -7.2818383755        1.0107772889
 C         3.6631551804       -8.6253353315       -1.1803968414
 C        -1.4065358469      -13.5512401529       -0.1180952049
 C        -3.2259986251      -11.7779712083        0.2645603034
 C         0.2003235010       -9.3692019021        4.3270338610
 C        -1.3421710694       -9.5040768927        6.4492731962
 H        -2.6309463956       -7.3776163341        6.2959512367
 H        -2.7003466171       -5.8087569485        5.4224692684
 H        -1.3503442331       -6.2682566914        6.3795187484
 H        -3.2184852549      -11.4937176342        5.1483515254
 H        -1.4537979376      -11.8307844105        4.7388812354
 H        -3.8044195053      -11.6094911221        2.7002864270
 H        -3.2883164471      -13.1429049424        3.4466479708
 H         0.8298205623      -12.2319622395       -0.3333252923
 H         0.8148314204      -11.5345404246        1.3830327389
 H         1.4118567819      -10.0450372176       -1.2071761377
 H         2.5950269960      -10.6752381756       -0.1450290094
 H         2.6012879631       -4.9809378187       -0.6738063350
 H         1.7030214328       -5.5807166740        0.7115631964
 H         0.3492085228       -4.3230717829       -1.7839271065
 H         0.6890611790       -3.4339899071       -0.2815356786
 H        -4.5854445406       -4.1559377973       -2.0486179810
 H        -3.3715612991       -5.4244095109       -2.0674769524
 H        -2.2348089158       -4.4264418156       -3.8119380023
 H        -3.4951968753       -3.2591768964       -4.1724128478
 H        -4.2686068865       -5.8667875170       -8.2706268374
 H        -2.6261853688       -5.5202317342       -7.7721006610
 H        -3.3704749494       -3.0718520578       -9.0251253706
 H        -4.2790793650       -4.3310401877      -10.0977900042
 H        -4.2942506024       -2.5793677544      -12.5887913939
 H        -2.7750323491       -2.4115027834      -13.7029291738
 H        -3.4530695113       -0.1794745343      -11.8241118451
 H        -4.0629553119       -0.1943626526      -13.4641892962
 H        -3.2053185982        2.4916832739      -15.2391371946
 H        -1.9065603579        3.4559936660      -14.8613653269
 H        -3.1613427627        5.3884974756      -13.9972073189
 H        -4.6862686061        4.3666797550      -13.8933601916
 H        -2.7362365924        8.1173459977      -16.1510450916
 H        -3.9183205677        9.1177512753      -16.9659545602
 H        -1.7661407537        9.4783745529      -17.8837232970
 H        -3.0448224917        8.9253516612      -18.9730111051
 H         0.5491116471        5.0141042487      -21.4527410554
 H        -0.1750637125        5.8131483866      -22.7356281885
 H        -1.4919019547        3.4135344054      -21.4601152733
 H        -0.2391761052        3.1752799686      -22.8305726517
 H        -6.1006034147        2.4908624949      -22.7287335221
 H        -5.7469654118        4.1202622582      -23.5789520706
 H        -6.7122401983        5.3261698546      -21.9320868251
 H        -5.4349070408        5.0071788250      -20.9708867400
 H        -7.6080997299        2.3911005857      -18.4044924193
 H        -8.4319914152        0.8271454268      -18.9341432830
 H        -9.6051401884        0.7355335776      -17.1213937860
 H       -10.4458704612        2.1610415432      -17.4272307906
 H       -12.3912153382        3.8008837296      -15.3978593890
 H       -11.8206275782        4.4719462359      -16.9299074513
 H       -11.8900695746        5.5444659506      -15.7634825145
 H       -11.5342989512        2.6282473213      -14.1011996722
 H       -10.4349920126        1.4311464173      -13.7181780571
 H       -11.0709837080        1.4472989994      -15.3785877938
 H        -8.2900163762        2.5623321562      -13.2942389262
 H        -8.9555748653        4.0512839099      -12.9899434700
 H        -7.6252674943        3.8731227138      -14.1205119453
 H        -8.6552945517        5.1721632926      -18.9315032894
 H       -10.3310572862        4.7875480688      -19.3719463881
 H        -9.2209238232        5.9243826799      -20.3669116076
 H        -8.6440865275        3.2266402656      -22.6912986228
 H        -9.1341454973        4.8877536806      -22.1432727654
 H       -10.2047562315        3.4547086250      -22.0605325181
 H        -4.9303271999        2.4638443148      -24.8933517529
 H        -3.4326216875        2.0007463242      -25.4942644350
 H        -3.7943114412        3.7094420892      -25.4534590184
 H        -1.6358106369        1.2827491735      -23.6636919728
 H        -3.1753390170        0.5407853387      -23.2237153862
 H        -2.4376847545        1.4382492712      -22.1233381050
 H        -1.2518645048        9.3787569937      -20.4811507566
 H        -2.0065299759        8.2497474330      -21.6122024372
 H        -0.2609831090        8.2914675479      -21.8411146365
 H         0.8630548259        6.2149196904      -18.9164145762
 H         0.8766137223        8.0225142435      -19.0870773435
 H         1.4069676224        6.9497485126      -20.4525587967
 H        -6.4733984198        5.4113937639      -17.6610969438
 H        -7.0134759143        6.7878802013      -16.6342657881
 H        -6.8772590241        5.0444814899      -15.9773261367
 H        -4.1624234649        7.1566338284      -14.2532342994
 H        -5.7607619182        6.4196163456      -14.2323865082
 H        -5.4932007034        8.0924036869      -15.0359882216
 H        -0.3835763452        0.8825583428      -11.3587608368
 H        -2.0921481044        1.1752531808      -10.8370269333
 H        -1.0924751908        2.6132185611      -10.9619824577
 H        -0.5447383103        1.7761955691      -14.8484121867
 H         0.4953273978        1.0571330862      -13.7474716586
 H         0.1469974012        2.8064253913      -13.6608407355
 H        -0.0325006282       -3.7068407318      -11.6454837633
 H        -0.6064112837       -4.3421199842      -13.1504166802
 H        -0.1533472127       -5.2997975877      -11.8014512719
 H        -3.0757749399       -4.8295549848      -13.4490113983
 H        -4.0822782209       -4.7610806889      -11.9542091757
 H        -2.9919586768       -6.0020289220      -12.0609136270
 H        -6.1643527240       -6.7254060966       -5.4201505752
 H        -5.1845898050       -6.6057959262       -7.0361952819
 H        -6.7243396020       -5.7758130247       -6.7829875346
 H        -5.7011650189       -3.6903125757       -4.1219553476
 H        -7.0409888012       -4.3156882952       -5.1164872260
 H        -6.0712852460       -3.0889971922       -5.8156756060
 H        -3.2048005929       -4.7270499253        1.6460275733
 H        -3.4072700351       -5.4685262293        0.1776972647
 H        -4.1804775875       -3.9066869561        0.3637192143
 H        -2.2298359175       -2.3994562299        1.4933111980
 H        -1.3741724554       -1.8549990925       -0.0343940482
 H        -0.5743751498       -2.7389498231        1.2292399880
 H         2.9552967604       -6.5043412714        1.5886203143
 H         4.3865215412       -6.7010364790        0.7764023501
 H         3.8526696663       -8.0623167391        1.7303996875
 H         4.3397793476       -7.9243369712       -1.6061200110
 H         3.0629944509       -9.0196425894       -2.0628829390
 H         4.2512745061       -9.4841075285       -0.7482018129
 H        -0.9258358856      -13.3381726245       -1.0309472642
 H        -2.3336385278      -14.0772532541       -0.3952428740
 H        -0.7879429028      -14.1672199688        0.5812336541
 H        -3.2754286085      -11.7777041387       -0.7883818137
 H        -3.4418302943      -10.7971009236        0.6697730432
 H        -3.9382219563      -12.5393764565        0.5947396158
 H         0.2538030168      -10.4671079143        4.4226186908
 H         1.0231774789       -8.7922142254        4.8383823537
 H         0.3755041312       -9.0301451228        3.3173938386
 H        -0.6922288549      -10.3179307594        6.7094277344
 H        -2.3816065081       -9.8122986250        6.6588661678
 H        -1.1620601130       -8.6757003386        7.1742376540
 Na       -1.4125168165       -7.8391223339        1.4792206990
 Na       -4.0963771676        4.4247956084      -19.1301621122
