232

 C        -2.0888382934       -6.5932050887        5.7635050225
 C        -1.4799370357       -7.4858138963        4.6743375341
 O        -1.0628780513       -6.8857040821        3.6636711316
 C        -1.1819397601       -8.9952092705        4.8711750507
 C        -2.2123836594       -9.8654921487        3.9408619826
 O        -2.7152335654       -9.3627456668        2.9411865607
 C        -2.4845323065      -11.2893001478        4.4053489326
 C        -2.7425605758      -12.2909929925        3.2332097025
 C        -1.5555948110      -12.2961362303        2.2815240197
 O        -0.4612734339      -12.6159243589        2.6527459030
 C        -1.8418371039      -12.0043309609        0.7532627270
 C        -0.8197190907      -10.9805688994        0.3405347139
 O        -1.1552811910       -9.8754965005        0.0542993423
 C         0.7329800636      -11.3235451854        0.6597670261
 C         1.6353579295      -10.3316742040       -0.1057873558
 C         1.5953819017       -8.8636794202        0.4617007838
 O         0.9863713239       -8.4731520168        1.4382984769
 C         2.5582217637       -7.9009247991       -0.3045945721
 C         1.6050802207       -6.8036733100       -0.9367729696
 O         0.9669818917       -7.1198595844       -1.8434917759
 C         1.5879980572       -5.2800382238       -0.5712274327
 C         0.3527841866       -4.6529291054       -1.1904622775
 C        -0.9133808268       -5.0681650303       -0.3535941009
 O        -0.8729501437       -6.1562622341        0.1567120315
 C        -2.0309182390       -4.0939202114       -0.0982861927
 C        -2.6867079472       -3.4824852874       -1.4973783837
 O        -2.4257232346       -2.3518941226       -1.8848626080
 C        -3.4558684417       -4.5055951779       -2.2964632105
 C        -3.2556907211       -4.3858941013       -3.8443166993
 C        -4.1418390909       -5.4426623191       -4.5065203575
 O        -3.8760252100       -6.6531092657       -4.3336906698
 C        -5.0553431918       -4.9871528351       -5.7202655108
 C        -4.1106594276       -4.3428041186       -6.8520082911
 O        -3.7176153691       -3.2538804294       -6.7061471754
 C        -3.7488704725       -5.1133384896       -8.1113388868
 C        -3.3994633421       -4.2346926905       -9.2462018098
 C        -2.1358144293       -4.5706146422      -10.1062067645
 O        -1.2210317474       -5.1740367690       -9.5993732553
 C        -2.1354168470       -4.0302412130      -11.5722159301
 C        -2.3105118201       -2.5405730108      -11.6222234786
 O        -1.8082562359       -1.6753271194      -10.9695656747
 C        -3.2843651526       -1.9978627890      -12.8225420663
 C        -3.2434195685       -0.4030503783      -12.8183340514
 C        -1.9039859910        0.1740199990      -13.3339531862
 O        -1.2270448824       -0.5572992928      -14.0308311875
 C        -1.4326873474        1.6931731793      -12.9783565201
 C        -2.5944528847        2.6382867394      -13.2353465987
 O        -3.5120831471        2.8545375421      -12.3944334871
 C        -2.6884409463        3.3431741192      -14.6228588734
 C        -3.5243865652        4.5681646578      -14.5808685934
 C        -4.0700546539        5.0285944244      -15.9541579712
 O        -3.9623264900        4.2376727203      -16.8949387552
 C        -4.8882604949        6.3602000451      -16.1351561125
 C        -4.1068005176        7.1146034717      -17.2579702510
 O        -4.2826025466        6.7529042897      -18.4120503298
 C        -3.3174014349        8.3810916186      -16.9534007865
 C        -2.5846579069        8.7030799232      -18.3615068483
 C        -1.6938691038        7.4952576913      -18.6009501088
 O        -1.4620858127        6.7280489113      -17.6985576385
 C        -0.8666966287        7.1006046629      -19.9956580828
 C        -1.4683419599        5.7967036964      -20.5357550654
 O        -2.4256201981        5.2034663135      -20.0398771637
 C        -0.8468391146        5.2708112637      -21.7604175597
 C        -1.2090145677        3.8858221176      -22.1731455505
 C        -2.1808979746        3.9234823424      -23.3958571132
 O        -2.1330075440        4.8161771923      -24.2381487341
 C        -3.2644915707        2.7113600791      -23.3625149972
 C        -4.2772067127        3.0531433316      -22.2665750034
 O        -3.8833946794        2.9903772915      -21.1372220572
 C        -5.7982745591        3.4101928595      -22.5321304423
 C        -6.4447785818        4.5850929117      -21.8522341762
 C        -7.2340706024        4.1679876561      -20.4933944694
 O        -6.6303491412        4.0141808149      -19.4691912609
 C        -8.7177597095        3.8036044934      -20.5380150227
 C        -9.2493820613        2.4472484630      -19.8373963925
 O       -10.4035011851        2.2269953191      -20.1054261223
 C        -8.5294749300        1.6728746507      -18.7119487048
 C        -9.4638463837        1.7165716262      -17.4770709360
 C        -8.6775355157        2.4380664263      -16.3207998778
 O        -7.4569190884        2.5900611251      -16.3976342382
 C        -9.4825438320        3.0415736454      -15.0921991980
 C       -10.0929050847        4.3525429490      -15.7574308654
 O        -9.4041603246        5.0867243494      -16.4214766110
 C       -11.5932423466        4.7838615133      -15.5166838074
 C       -10.4878199176        2.1511790063      -14.4301340654
 C        -8.4643972486        3.5119392147      -14.0350537541
 C        -9.4700543446        4.9056569472      -19.7609571493
 C        -9.2253852691        3.7577548140      -22.0063139794
 C        -3.8540221912        2.7622670224      -24.8069959606
 C        -2.7408918228        1.3097927735      -23.2312252019
 C        -0.9445775065        8.2368037477      -21.0719482176
 C         0.5849144936        6.8402971411      -19.5178223881
 C        -6.2236948750        5.9383528653      -16.8947911571
 C        -5.1824963753        7.3395717339      -15.0107544260
 C        -1.1504981751        1.6342125299      -11.4128483778
 C        -0.1394227898        1.9911520572      -13.6964229003
 C        -0.7552343153       -4.3176615205      -12.0976078108
 C        -3.1733650899       -4.8697527855      -12.5068244228
 C        -5.7950656640       -6.3233877974       -6.1476575347
 C        -6.0575935075       -3.8913459260       -5.1512471778
 C        -3.1837197367       -4.8165891329        0.7108201358
 C        -1.5683660440       -2.8204887114        0.7697586507
 C         3.5721647365       -7.4430502851        0.8190026101
 C         3.3779875370       -8.5295823424       -1.4791388585
 C        -1.5747587945      -13.4013115396        0.1833198087
 C        -3.2861067552      -11.6402412598        0.2861181321
 C         0.2153535845       -9.3015627580        4.3541577082
 C        -1.3347345742       -9.2705658489        6.4206103841
 H        -2.9356242537       -6.9426654283        6.3209068956
 H        -2.2257707083       -5.5798873797        5.3548533743
 H        -1.3080942710       -6.4936751909        6.6106412478
 H        -3.3729081501      -11.2395659664        5.0304355946
 H        -1.6467222427      -11.6321858290        4.9837606575
 H        -3.6134219078      -11.8818927972        2.7624009574
 H        -2.9867675724      -13.2715120730        3.5020736176
 H         0.9537332353      -12.3520470860        0.2389520179
 H         0.8592799780      -11.2832593156        1.7415463484
 H         1.3313484774      -10.2297174142       -1.2182550778
 H         2.6744806268      -10.6562313902       -0.1848450811
 H         2.5103744887       -4.8792967788       -1.0900107944
 H         1.5692758337       -5.1497755105        0.5481384236
 H         0.1824586794       -4.9936520555       -2.2159089240
 H         0.5142883725       -3.5721879612       -1.1579765183
 H        -4.5038018123       -4.3567164059       -1.9635892756
 H        -3.2719875527       -5.5445817980       -1.9054146087
 H        -2.1891437345       -4.7409052326       -4.0977035290
 H        -3.4116734370       -3.3881780916       -4.3318991237
 H        -4.5336640605       -5.8774327517       -8.3363298727
 H        -2.8405742602       -5.6945276860       -7.7689496207
 H        -3.0543548005       -3.2939881107       -8.7890889243
 H        -4.2629026103       -4.2395889511       -9.9260781383
 H        -4.2545958528       -2.3394257104      -12.6579030037
 H        -2.8294024754       -2.3175456816      -13.7703423109
 H        -3.4809273419       -0.1525550725      -11.7263515278
 H        -4.0545656587        0.0382308702      -13.4312316037
 H        -3.0065295968        2.5545397685      -15.3936199098
 H        -1.6395604206        3.5340406805      -14.9934321692
 H        -2.8497513349        5.2751055712      -14.1564782162
 H        -4.3434564242        4.3711140607      -13.8418232259
 H        -2.4740004832        8.2971364634      -16.2430696136
 H        -3.9425923900        9.2013292491      -16.5892886130
 H        -1.9922178828        9.6441216070      -18.3232486421
 H        -3.2997749697        8.7355492628      -19.2368565196
 H         0.3030952892        5.2966245715      -21.6943317291
 H        -0.9819311542        5.9226634991      -22.7043436909
 H        -1.6525730751        3.2121534608      -21.4439125780
 H        -0.3457318660        3.5550711624      -22.6923930154
 H        -6.3215648058        2.4957017101      -22.2859996154
 H        -5.8216248583        3.6591082700      -23.6202369160
 H        -7.1761484998        5.0934358710      -22.5792906547
 H        -5.8372566233        5.4597603189      -21.6617922123
 H        -7.6518799914        2.1544710225      -18.5703925613
 H        -8.3711351919        0.6301679263      -19.1010272821
 H        -9.8893291331        0.7787769402      -17.0735135589
 H       -10.3897134853        2.2196429788      -17.8322052854
 H       -12.0167176565        4.1427746852      -14.7747300018
 H       -12.2951130282        4.8263674950      -16.3862921580
 H       -11.5542454445        5.8578660439      -15.1352367341
 H       -10.7719484478        2.4021416839      -13.4118424175
 H       -10.0575371361        1.1559388965      -14.2138552496
 H       -11.2885190218        1.9519183991      -15.0666044739
 H        -7.7392344687        2.6634263213      -13.6657640983
 H        -8.9703148531        3.9173770183      -13.1451380799
 H        -7.7235134141        4.2555825597      -14.3915371809
 H        -9.2974345160        4.8197308219      -18.6583010163
 H       -10.4440207843        4.9862835409      -20.1048353609
 H        -9.0048618150        5.8130144995      -20.1514702655
 H        -8.7889048856        2.9394001478      -22.5364074303
 H        -9.0406033600        4.7701979242      -22.5058209360
 H       -10.3048542298        3.4660598140      -21.9666839802
 H        -4.7985915186        2.1610518209      -24.9152292602
 H        -3.1540584285        2.3329438922      -25.5776025995
 H        -4.0476361500        3.8257812327      -25.1219330092
 H        -1.9592337930        1.0926953988      -23.9789521989
 H        -3.5325954773        0.5770057160      -23.3146647731
 H        -2.2519398949        1.0669163889      -22.2337094860
 H        -1.2246845908        9.0815889710      -20.5044727367
 H        -1.6931680937        8.0913199912      -21.8160880386
 H         0.0086838915        8.2797687282      -21.6384409694
 H         0.8023860236        5.8394623092      -19.6790667410
 H         0.6098776034        7.0805052698      -18.4824101975
 H         1.3011509491        7.3659620160      -20.1572532983
 H        -6.0668951276        5.3313551869      -17.7325590843
 H        -6.8187690028        6.8691890695      -17.0693941354
 H        -6.7819568257        5.2566481035      -16.2846086698
 H        -4.2300805875        7.7578896783      -14.6689806325
 H        -5.6580129543        6.9000006929      -14.1575698673
 H        -5.6533095499        8.2046532033      -15.4148251288
 H        -0.6258576889        0.7326536480      -11.1253326214
 H        -2.0691164900        1.7952980580      -10.9003597085
 H        -0.6035328044        2.5004753501      -11.1857843796
 H        -0.0083288333        1.5153037412      -14.6822685898
 H         0.6495346870        1.5237427860      -13.1072460659
 H         0.1207726678        3.0369984734      -13.8126880732
 H         0.0425271426       -3.9587471775      -11.3365528501
 H        -0.5378075559       -3.9351214319      -13.0738951898
 H        -0.6123235450       -5.4652098812      -12.1329414248
 H        -2.9389736532       -4.6191938426      -13.5332261895
 H        -4.2556124989       -4.5536528944      -12.2771234485
 H        -3.1282063816       -5.9819723075      -12.3657578747
 H        -6.6027597803       -6.3527128284       -5.5083169785
 H        -5.0822915888       -7.1250943517       -6.1326566294
 H        -6.2188035933       -6.2816653197       -7.1318996867
 H        -5.9177326532       -3.9837176742       -4.1042516928
 H        -7.0787401008       -4.0699317683       -5.3797724882
 H        -5.7460104701       -2.8661258301       -5.4705356326
 H        -2.7841759058       -4.8047284021        1.7930744229
 H        -3.1975826752       -5.8752250436        0.5435169056
 H        -4.1532547521       -4.3435831967        0.5900108392
 H        -2.2954590669       -2.3333973199        1.4202943507
 H        -1.0110061812       -2.1512139893        0.0494863949
 H        -0.8418113372       -3.2274384377        1.4309623853
 H         3.3328361352       -6.6424784387        1.5210401821
 H         4.4328162054       -6.9202782300        0.3498093766
 H         3.8833890698       -8.2680995292        1.4313597627
 H         4.0150194378       -7.7555652177       -1.9517793271
 H         2.7528573886       -8.7698633416       -2.2854921387
 H         3.9430092381       -9.3635273856       -1.1987732533
 H        -0.5493505838      -13.3711269510       -0.3370303278
 H        -2.3526384539      -13.5918830278       -0.5674528060
 H        -1.5916373759      -14.1512601495        0.9578478916
 H        -3.2535671989      -11.5178205623       -0.8130151693
 H        -3.5858244036      -10.7503002975        0.7929824513
 H        -3.9778158470      -12.4086037431        0.5386744034
 H         0.1553850153      -10.1763737677        3.6975188971
 H         0.9993741863       -9.3752817607        5.0788371030
 H         0.5379837973       -8.4188692927        3.7697937001
 H        -1.2240480101      -10.3709007185        6.5043996896
 H        -2.2950117894       -9.0592097013        6.8913340563
 H        -0.5093818655       -8.8292386637        6.9188600468
 Na       -1.3332515910       -8.1264717786        1.5114840207
 Na       -4.4658292150        4.4891117831      -19.1949619652
