232

 C        -2.0554899614       -6.5336902897        5.6283329922
 C        -1.2900795880       -7.5065973271        4.6802054299
 O        -0.9828140334       -7.0475497770        3.5921957247
 C        -1.1467100119       -9.0091182235        5.0782109819
 C        -2.1979988056       -9.7922114992        4.1153105575
 O        -2.4652221219       -9.3854740073        2.9849634282
 C        -2.5289248873      -11.1594385167        4.5734729297
 C        -2.8992006164      -12.0358216672        3.4011296334
 C        -1.6998469137      -12.3147853919        2.5120286932
 O        -0.7530829021      -12.8311275338        3.0267588833
 C        -1.8291255180      -12.0212691057        1.0273792588
 C        -0.7811882600      -11.0046324878        0.5132019344
 O        -1.1072984894      -10.0139610210       -0.0481962076
 C         0.7823554186      -11.1912804955        0.6733186853
 C         1.6590114025      -10.2788590580       -0.2333088315
 C         1.8803569437       -8.8731774425        0.3052094126
 O         1.4618263869       -8.5162012671        1.3807092996
 C         2.6427292755       -7.8588332178       -0.5259554082
 C         1.4575722595       -6.9185840283       -1.3126620991
 O         0.5760094118       -7.3436086813       -1.9525465798
 C         1.6084532816       -5.3536169727       -1.0488646405
 C         0.2333099501       -4.7420244856       -1.2305731933
 C        -0.8181386700       -5.2928391082       -0.2352412781
 O        -0.7221225488       -6.3859733326        0.2378532891
 C        -2.0964170013       -4.2994540732       -0.0531986197
 C        -2.3692065850       -3.8859759226       -1.5441018535
 O        -1.8205313305       -2.8257794803       -1.9129470552
 C        -3.3624790987       -4.7319636969       -2.2726941689
 C        -3.3233083285       -4.5823484102       -3.7618753710
 C        -4.3095271743       -5.6143749398       -4.4803024919
 O        -4.4033035613       -6.7784471777       -3.9965966223
 C        -5.0648885875       -5.1941986166       -5.7429452885
 C        -4.0487705954       -4.4948277060       -6.7939199483
 O        -3.6327188815       -3.4111365840       -6.6110644087
 C        -3.7201329858       -5.1436450378       -8.2091687701
 C        -3.3425962244       -4.0655881894       -9.2991592461
 C        -2.1813405420       -4.5341832396      -10.2209851512
 O        -1.3860651285       -5.3368987185       -9.8405866001
 C        -2.1555911221       -3.9625399675      -11.6551310330
 C        -2.3453536026       -2.3458510743      -11.5562494448
 O        -1.7647795918       -1.6830591819      -10.7609505691
 C        -3.2377822840       -1.7584353552      -12.7212233409
 C        -3.1361954245       -0.0665116674      -12.7514563057
 C        -1.7876119407        0.3946835856      -13.3902327286
 O        -1.0458912365       -0.3356941273      -14.0492433081
 C        -1.3191912564        1.8491926813      -13.0084527624
 C        -2.4480222022        2.9357188352      -13.2537201607
 O        -3.3453310961        3.1403457879      -12.4452135255
 C        -2.4426636650        3.5616186221      -14.6625280511
 C        -3.3394504908        4.8524358153      -14.8278971518
 C        -4.0820785922        5.0183788632      -16.1724531851
 O        -4.0094598657        4.1761112064      -17.0532096590
 C        -4.9775799078        6.3951384196      -16.2806050853
 C        -4.4436632817        7.2228052068      -17.4786858210
 O        -4.6942221630        6.9019517098      -18.6436467785
 C        -3.8555996389        8.6107254649      -17.3522474816
 C        -2.5057727988        8.7308045253      -18.1719179189
 C        -1.6200816832        7.4805289504      -18.2947634136
 O        -1.5476391763        6.7953875916      -17.3163238815
 C        -0.7634536913        7.1653529060      -19.6413750722
 C        -1.4565768552        5.7766314046      -20.2262175154
 O        -2.1308731761        5.0384297702      -19.5197592733
 C        -1.2497734724        5.3584538780      -21.7835747621
 C        -1.5170614084        3.8784929622      -21.9188625111
 C        -2.3197970078        3.7146340094      -23.2990619632
 O        -2.1094090619        4.5140963282      -24.1926602902
 C        -3.4910233283        2.6402483240      -23.4169392882
 C        -4.5444122386        3.0464565616      -22.3165864890
 O        -4.1524752472        3.1572220384      -21.1813792526
 C        -6.0830000570        3.1725227390      -22.5449157105
 C        -6.6287991026        4.3808626413      -21.8227089382
 C        -7.4299087859        3.9174517338      -20.6263419909
 O        -6.8490016818        3.8366793523      -19.5600384916
 C        -8.9217908801        3.7299180489      -20.7073375842
 C        -9.4799192304        2.4673195403      -19.9849758417
 O       -10.5507055624        2.0062780836      -20.3163884503
 C        -8.5629443463        1.7496088018      -19.0046480592
 C        -9.1547958735        1.6475843330      -17.5784371618
 C        -8.3826711694        2.4542932785      -16.4597805864
 O        -7.1559610594        2.4689661226      -16.3586528958
 C        -9.2486436095        3.1530880332      -15.3258204930
 C       -10.0480435230        4.5449180433      -15.7877891730
 O        -9.7796211673        5.0608778699      -16.8101665188
 C       -11.1636554811        5.0033012363      -14.9158083068
 C       -10.2470512499        2.1082337328      -14.7356318924
 C        -8.4311272837        3.5786780666      -14.1647353233
 C        -9.4278221988        5.0249348269      -20.0346882873
 C        -9.4669168942        3.7341541612      -22.1512016077
 C        -4.0550098298        2.5616053522      -24.8679534645
 C        -2.8036820481        1.2866741310      -23.0232720865
 C        -0.8950152333        8.2224688837      -20.7204157560
 C         0.8221239084        6.8571612294      -19.3369449581
 C        -6.4451396144        6.1529810031      -16.5123712795
 C        -4.7727945151        7.2360495364      -14.9434957384
 C        -1.2441291991        1.8636179893      -11.4451201570
 C         0.0997004432        2.0900157070      -13.6313551852
 C        -0.7842464398       -4.1448616031      -12.2760281903
 C        -3.2654407680       -4.6972131598      -12.4901551389
 C        -5.8676360854       -6.4600378436       -6.2411633951
 C        -6.0658226410       -3.9412151571       -5.2667239172
 C        -3.2378306615       -5.0924332107        0.8045393034
 C        -1.4967478006       -3.1039940050        0.8891950686
 C         3.5235952275       -6.9287142651        0.3208951314
 C         3.5480672557       -8.4409280028       -1.7220254574
 C        -1.6545999818      -13.1410435715        0.0203581998
 C        -3.2560784394      -11.4156643155        0.6348756115
 C         0.2340552438       -9.4963216295        4.5182764944
 C        -1.3034714694       -9.1974543617        6.5869010079
 H        -3.0740154030       -6.6957050832        5.6963787786
 H        -1.8255376069       -5.5258849910        5.2154908604
 H        -1.8342853505       -6.5479321741        6.6774577778
 H        -3.3335408522      -10.9957200849        5.3237194370
 H        -1.6495590204      -11.6142466434        5.1501050931
 H        -3.7028486948      -11.6167567365        2.8348273027
 H        -3.2828979293      -13.0374240569        3.7718879068
 H         1.0750938176      -12.2080505162        0.4750652662
 H         0.9363078961      -10.9733883382        1.6907396783
 H         1.2941672577      -10.1650493550       -1.2745015056
 H         2.6658669464      -10.7437804763       -0.3535902869
 H         2.2381562142       -4.9867301853       -1.8277948330
 H         1.9473162541       -5.1941618514       -0.0635158310
 H        -0.1556741723       -4.9297456856       -2.2293534500
 H         0.2820789942       -3.6486578690       -1.0572208302
 H        -4.3581771980       -4.6916812776       -1.8242451456
 H        -3.1050062532       -5.7168977758       -2.0372760695
 H        -2.3246353509       -4.7375909004       -4.2470880409
 H        -3.5907463204       -3.6334836155       -4.0772293546
 H        -4.6108485975       -5.7186435916       -8.5430258067
 H        -2.8001704425       -5.7173276481       -8.0689354825
 H        -2.9230561880       -3.2003261731       -8.8330608429
 H        -4.2389147044       -3.9506832684       -9.9174295391
 H        -4.2372322632       -2.0173004466      -12.4417147525
 H        -2.9668003214       -2.0554879374      -13.7879753583
 H        -3.3681113956        0.3852093863      -11.7112729343
 H        -3.9523032150        0.3100597658      -13.3626245231
 H        -2.7374319593        2.8659197378      -15.4491150458
 H        -1.4381003119        3.7390237220      -14.9157128301
 H        -2.5820637803        5.7200937389      -14.7311434732
 H        -4.0925421600        5.0287018244      -14.1002653504
 H        -3.5735613846        8.8016914841      -16.3180462890
 H        -4.4471534150        9.4052638390      -17.6904621545
 H        -1.8351585844        9.4339055887      -17.8134717167
 H        -2.8496891657        9.1150864232      -19.1394360792
 H        -0.2503893601        5.6201250077      -22.1323739614
 H        -1.7994078684        6.1031164890      -22.3410372829
 H        -2.0609098890        3.5693798715      -21.0108681812
 H        -0.5868307885        3.3271741857      -22.0655503738
 H        -6.5158856423        2.2252682693      -22.0912935895
 H        -6.2997410130        3.1577441112      -23.6162486905
 H        -7.1794274407        5.0558238117      -22.4367709778
 H        -5.8799739520        5.0273452860      -21.3773826580
 H        -7.5941302466        2.2087391235      -18.9053848766
 H        -8.4107962536        0.7030162311      -19.3954733127
 H        -9.1989296732        0.6119809942      -17.3228914805
 H       -10.2118160613        2.0602586746      -17.4551865744
 H       -11.1132912645        4.7737519114      -13.8693054994
 H       -12.0726158057        4.4535907780      -15.2333033919
 H       -11.2583436989        6.0729697968      -15.0275571251
 H       -10.5183580063        2.4711859007      -13.7313873539
 H        -9.9944044951        1.0361683325      -14.4883949479
 H       -11.1560693103        2.1013105400      -15.2805394814
 H        -7.7531359770        2.7741568279      -13.8455202912
 H        -8.9984112631        4.0148700170      -13.4115205459
 H        -7.7483343639        4.2991226395      -14.4626958852
 H        -8.8515505140        5.1569725976      -19.0968738872
 H       -10.4186874127        4.8979104831      -19.9592664475
 H        -9.3964944712        5.8915305432      -20.7026325365
 H        -8.7368940703        3.3131372207      -22.7718536900
 H        -9.5940661457        4.7779972225      -22.5075371204
 H       -10.4380294024        3.2305627335      -22.2075372514
 H        -4.9363703790        1.9549326509      -24.9833108347
 H        -3.2852539549        2.3302616328      -25.5572557160
 H        -4.3161559400        3.5640127510      -25.0846133157
 H        -2.0352074235        1.1132270936      -23.7292323535
 H        -3.5061570471        0.4909875407      -23.2629094351
 H        -2.2723405984        1.1927981613      -22.0907941557
 H        -0.1359379880        9.0179979761      -20.5487259332
 H        -1.9986917503        8.5367377853      -20.8218085165
 H        -0.5575985136        7.7682338802      -21.7832663236
 H         1.0613274449        5.8131849785      -19.5075806053
 H         1.0356209298        7.1712047228      -18.2811397727
 H         1.3364447268        7.4499738167      -20.1155712851
 H        -6.5827777791        5.2567045003      -17.0711641826
 H        -6.9715072277        7.1006657530      -16.8694703273
 H        -6.9982200684        5.9830197356      -15.5736103971
 H        -3.7065555170        7.6473129455      -14.8131840883
 H        -5.1770625177        6.7196489232      -14.0426511545
 H        -5.2733791531        8.2182275807      -14.8939365980
 H        -0.6268191987        0.9965608964      -11.1509586139
 H        -2.2631409493        1.7597208462      -10.9973941229
 H        -0.7810576345        2.8325189834      -11.1200833785
 H         0.1491307893        2.3871295006      -14.6555372888
 H         0.7607187757        1.2305391438      -13.4954717468
 H         0.6099076645        2.8525516868      -13.0171128624
 H         0.0140069473       -3.5957298966      -11.7759633559
 H        -0.7785082238       -3.8298423170      -13.2176031080
 H        -0.5590900789       -5.1708050087      -12.2918406981
 H        -3.3809919279       -4.3893301762      -13.4807561940
 H        -4.2334144891       -4.5539901941      -12.0249835497
 H        -2.9868969141       -5.7457614929      -12.5734324974
 H        -6.5489804298       -6.8501390657       -5.4518754124
 H        -5.0691847598       -7.2105381535       -6.5424056617
 H        -6.4901030434       -6.1720205352       -7.1216253242
 H        -6.9707842750       -4.3959033678       -4.7653353055
 H        -6.4292109345       -3.4574339583       -6.1645975810
 H        -5.5707135716       -3.3206345475       -4.4999477778
 H        -2.9208329860       -5.9457527344        1.4439988269
 H        -3.9286889994       -5.4265873693        0.0974678805
 H        -3.7080949921       -4.3637984982        1.4346561682
 H        -1.9449732737       -2.1740438957        0.5599713165
 H        -0.4275660887       -2.8746434719        0.6734406109
 H        -1.7258542421       -3.2836247387        1.8969858592
 H         3.2369186554       -6.8960215614        1.3175233425
 H         3.6003590150       -5.8636548486        0.0005098261
 H         4.5042045554       -7.3826655876        0.5017666595
 H         3.8974854921       -7.5462135116       -2.3327302374
 H         3.0727940195       -9.0272270584       -2.4986404231
 H         4.4223859566       -8.9850090289       -1.3192322067
 H        -1.3060418387      -14.0349876171        0.5810024338
 H        -0.9077814813      -12.8890003742       -0.7076302675
 H        -2.5592100869      -13.3498148441       -0.4899448577
 H        -3.2022802008      -11.1677579200       -0.4362924485
 H        -3.5188412178      -10.5461720870        1.2476479213
 H        -4.0292177720      -12.1555946044        0.7936988588
 H         0.2382468869      -10.5150172267        4.1195645067
 H         0.9641313089       -9.4287691314        5.3213379067
 H         0.5266626087       -8.8069073609        3.6668220289
 H        -0.9899842314      -10.2136827653        6.9288952099
 H        -2.3439847056       -9.1038759051        6.8470017783
 H        -0.7274653028       -8.3748977827        7.0095407646
 Na       -1.0060425854       -8.0338602527        1.5882830476
 Na       -4.5163424425        4.6059631271      -19.1626247419
