232

 C        -1.9553481883       -6.5150024350        6.2355987189
 C        -1.2459646835       -7.3888775957        5.1924359291
 O        -0.8141162298       -6.7541320513        4.2140799765
 C        -0.9495712929       -8.8614790126        5.5222392104
 C        -1.5246987227       -9.6349112269        4.4248162628
 O        -1.2470533354       -9.3670768501        3.2132671709
 C        -2.4627601937      -10.7995743261        4.6177205201
 C        -2.9597943042      -11.5396028161        3.4159152315
 C        -1.7165994783      -11.9988348847        2.4907416247
 O        -0.6538563385      -12.3212987821        2.9292041779
 C        -1.9820992164      -11.9041767725        0.9031092189
 C        -1.1240042016      -10.5789729307        0.5516465136
 O        -1.5643246314       -9.4426936265        0.4357237053
 C         0.3125062653      -10.8863801026        0.6513069062
 C         1.1726450627      -10.2664780007       -0.4410400291
 C         2.0820116288       -9.1168220291        0.0625031431
 O         2.0818392337       -8.8329064885        1.2337742886
 C         2.9705163631       -8.3451549415       -0.9366686356
 C         1.8360751092       -7.6077347142       -1.7325567257
 O         1.2297146236       -8.1670092618       -2.5682583858
 C         1.6591829332       -6.0182419453       -1.4421496077
 C         0.3458593095       -5.3110163820       -1.7522001746
 C        -0.6190621718       -5.5287215924       -0.4586196039
 O        -0.1308387066       -6.2535382195        0.4204711514
 C        -1.9280041355       -4.8141207373       -0.2315082240
 C        -2.5959506639       -4.3445882849       -1.5499261240
 O        -2.4968869708       -3.1838940784       -1.9370814272
 C        -3.5456406976       -5.3929601741       -2.2371570748
 C        -4.1523186587       -4.7633917873       -3.5473084912
 C        -4.8487443547       -5.8088402708       -4.4851915248
 O        -5.2088243959       -6.9258355129       -4.0016945006
 C        -5.1930025377       -5.4129170461       -6.0881106663
 C        -3.9487636089       -4.4755952082       -6.7061731218
 O        -3.4437017794       -3.5911421311       -6.1643392885
 C        -3.6589152862       -4.9728548482       -8.2568317838
 C        -2.7759939385       -3.9489062414       -9.0398307902
 C        -2.3197257799       -4.4594680463      -10.3624070728
 O        -1.8900237643       -5.6075460798      -10.4358957935
 C        -2.4777070962       -3.5338471229      -11.6459374212
 C        -2.5391436962       -2.0547920091      -11.3763801387
 O        -2.1352113108       -1.4798564314      -10.4232698998
 C        -2.9838764913       -1.1095792223      -12.5781802226
 C        -2.6411984987        0.3822276626      -12.3853978578
 C        -1.5798914523        0.9821678144      -13.3896452506
 O        -1.2745932730        0.4239234953      -14.4407598848
 C        -1.0381371612        2.4316600107      -12.9908597146
 C        -2.1566713763        3.2906432479      -13.5128528688
 O        -3.1039240129        3.5589124972      -12.8345290696
 C        -2.1480007439        3.7674596482      -15.0224804479
 C        -2.7788760215        5.1267741061      -15.1367887510
 C        -3.7600168224        5.2103948096      -16.3419577216
 O        -3.9218893874        4.2826681307      -17.0934419632
 C        -4.7643176079        6.4250501052      -16.3276292531
 C        -4.5325275066        7.2319779076      -17.6854104884
 O        -4.9336839562        6.7150962084      -18.6951245396
 C        -4.0457784767        8.6538449719      -17.8258769269
 C        -2.7147393172        8.6342389799      -18.8003844460
 C        -1.6679115415        7.7234047925      -18.1546254420
 O        -1.7158598483        7.5189030146      -16.9537153807
 C        -0.7253326745        6.9097525394      -19.3136791901
 C        -1.7736575412        5.8053049491      -19.9408324435
 O        -2.6801623294        5.3408314912      -19.2829562906
 C        -1.3820450605        5.3658187173      -21.4494158445
 C        -1.9722951213        3.9550975041      -21.6609832302
 C        -2.7630345886        3.7126491069      -22.8705304434
 O        -2.8207338837        4.5501992306      -23.7510318594
 C        -3.4929737642        2.4142708838      -22.8840915150
 C        -4.8659814379        2.9244543864      -22.1757412554
 O        -4.8566901125        2.8062335627      -20.9888995355
 C        -5.9833402158        3.6199902553      -23.0599747109
 C        -6.9627826362        4.6262341682      -22.3724658636
 C        -7.6285441037        4.1465832426      -21.0718349957
 O        -7.1804324219        4.3503129598      -19.9373123185
 C        -9.1638527660        3.7436171548      -21.0305097692
 C        -9.4550599225        2.3814481405      -20.2050272332
 O       -10.3491100004        1.6758194845      -20.5923856644
 C        -8.4857899307        1.9604356719      -19.0365887687
 C        -9.0769680383        1.7297871184      -17.6206314122
 C        -8.4792190690        2.5069066519      -16.5374708107
 O        -7.3528708638        3.0305023849      -16.6955923567
 C        -9.1970537406        2.9145709852      -15.2432502357
 C        -9.8630926314        4.2401250429      -15.5466927021
 O       -10.7177833455        4.3217146111      -16.3665593811
 C        -9.5991933901        5.5056086714      -14.6095660544
 C       -10.3222524063        1.8285029392      -14.8888060194
 C        -8.2394404912        2.9146081133      -14.0162720869
 C       -10.0466735388        4.9253000620      -20.4241822116
 C        -9.7275875977        3.4916016718      -22.4904668163
 C        -3.7774346408        2.0591165780      -24.3688347438
 C        -2.8822363297        1.2607546365      -22.0241410744
 C        -0.1771694701        7.9271885434      -20.3523369413
 C         0.2546305121        6.0260986234      -18.5104221062
 C        -6.1565434204        5.7948781355      -16.4995941325
 C        -4.7453280499        7.4404631045      -15.1262514494
 C        -0.9526438078        2.5576166880      -11.4558622224
 C         0.3222610254        2.6937666374      -13.6586480762
 C        -1.1193589883       -3.6570896101      -12.2970970896
 C        -3.6701265151       -4.0223434188      -12.5738864030
 C        -5.5128169282       -6.7369092415       -6.8488375703
 C        -6.4773992532       -4.4297731162       -6.0721200197
 C        -2.7398242713       -5.7427358703        0.6682436344
 C        -1.4489856613       -3.6210709719        0.6500728895
 C         3.9998929387       -7.4564942876       -0.2936813640
 C         3.6233506695       -9.3088814800       -2.0075249447
 C        -1.4266898868      -13.1921287587        0.2642497585
 C        -3.4725649847      -11.7264926184        0.4251511120
 C         0.5968039519       -9.0867433488        5.4151795639
 C        -1.4989282555       -9.2346860109        6.9904243708
 H        -2.7786892534       -7.0519985311        6.6715862590
 H        -2.3508039425       -5.5619566209        5.8199895676
 H        -1.2801946559       -6.2086427224        7.0714015167
 H        -3.1988341495      -10.3149004927        5.1919978099
 H        -1.9915233706      -11.4704190468        5.3354747391
 H        -3.4972032334      -10.8334441834        2.8449960682
 H        -3.5913837093      -12.4136066260        3.7275144422
 H         0.4494446545      -12.0108734076        0.7992940217
 H         0.5915256099      -10.7378704236        1.7571170167
 H         0.5469723790       -9.9495248240       -1.2591532358
 H         1.8412144556      -11.0855688147       -0.8288867028
 H         2.4307545820       -5.6081039200       -2.1897602962
 H         2.0810760530       -5.6610971918       -0.4495230356
 H        -0.1720360723       -5.5170124750       -2.6903491413
 H         0.5505122761       -4.2309351452       -1.6755641089
 H        -4.3118796447       -5.5752127165       -1.4072210162
 H        -2.9155309646       -6.2831861380       -2.4202304093
 H        -3.2646899914       -4.3739342715       -4.1404968883
 H        -4.7189250717       -3.8972408588       -3.4272577651
 H        -4.7049693988       -4.9796441156       -8.6618833263
 H        -3.1117507034       -5.9424661196       -8.2513925803
 H        -1.9378273045       -3.5576039442       -8.4173684621
 H        -3.3864445434       -3.0019654914       -9.1621477433
 H        -4.0440072440       -1.0230422274      -12.8016533848
 H        -2.5703740979       -1.2790254748      -13.5735647689
 H        -2.2670085531        0.4923151484      -11.3477849252
 H        -3.4614054627        1.0304381861      -12.4445208050
 H        -2.7662987446        2.9281297852      -15.4550062988
 H        -1.1163526234        3.7310052980      -15.3355650395
 H        -1.9776864653        5.9902668901      -15.2593217004
 H        -3.2035225949        5.4538504809      -14.2164340773
 H        -3.7194015413        9.2073649750      -16.9006567824
 H        -4.7623922789        9.2496628907      -18.4018293256
 H        -2.3118901546        9.6360072607      -18.9883475152
 H        -3.0463136233        8.3596543033      -19.8584579832
 H        -0.3063756990        5.5611952361      -21.5390039410
 H        -1.8397296572        6.0389795017      -22.2295071599
 H        -2.5713238849        3.5338316790      -20.8607411741
 H        -1.1118976955        3.2723766651      -21.5917072520
 H        -6.6288382562        2.8408702750      -23.5425786732
 H        -5.5250089002        4.0030883412      -23.9241839242
 H        -7.7274935253        4.7740155059      -23.0941807620
 H        -6.4092889520        5.5787973231      -22.0100346360
 H        -7.5689278038        2.5848146515      -19.0690415173
 H        -8.1157472438        0.9807845910      -19.2741994052
 H        -8.8690771445        0.6953049130      -17.3834133921
 H       -10.1780836199        1.9039867932      -17.7450124406
 H        -8.7412366203        6.1600012506      -14.7499557143
 H        -9.6862429408        5.1976319467      -13.5453128091
 H       -10.4725594814        6.1867894377      -14.7044809333
 H       -10.8408661515        2.0655290343      -13.9601745462
 H        -9.7625891504        0.8473285266      -14.8164987121
 H       -11.1204353130        1.6860792937      -15.5912821668
 H        -7.5258663645        2.0059666658      -13.9874982225
 H        -8.8687516950        2.7280431886      -13.1108634185
 H        -7.7437725346        3.8854081128      -13.9645638515
 H        -9.8930101286        5.0605147421      -19.3652012674
 H       -11.0198190484        4.5134617851      -20.5355793874
 H        -9.7569540301        5.8119953152      -21.0039092025
 H        -9.0423790239        2.8206693725      -23.0320119144
 H        -9.9061845292        4.4503862852      -23.0873810313
 H       -10.7002283184        2.9222309956      -22.3412177752
 H        -4.6192873775        1.3156614101      -24.5438223872
 H        -2.8799088879        1.6681223630      -24.9087570725
 H        -4.0077419528        3.0861475342      -24.7196330166
 H        -1.8671314565        1.1543402166      -22.3079069997
 H        -3.4240181187        0.3053871363      -22.2333111396
 H        -3.0146842527        1.3577009725      -20.9387165774
 H         0.1273287019        8.8844956898      -19.9547490300
 H        -0.8765286974        8.1946652751      -20.9980600111
 H         0.6166637687        7.5053203217      -20.8586357098
 H         0.3703932635        6.5393825391      -17.5809498101
 H         1.2091815623        5.9149131264      -19.0566569714
 H        -0.1353322647        5.0482497955      -18.3608918031
 H        -6.2089059101        4.9429101540      -17.1246998040
 H        -6.8725491198        6.5231921153      -17.0093024776
 H        -6.5417264024        5.5493273403      -15.4798721841
 H        -3.8324065193        7.9774776674      -14.7890113866
 H        -5.0133810750        7.0233207097      -14.1747212681
 H        -5.4990213821        8.1396884491      -15.3667367217
 H        -0.2932049291        1.7930705871      -11.0374916208
 H        -1.9525836757        2.6126902236      -10.9785768566
 H        -0.3733219482        3.5071247093      -11.3742508494
 H         0.2145512627        2.6234083331      -14.7133337724
 H         0.9118896792        1.8074113338      -13.3754384208
 H         0.8598229023        3.6446911214      -13.4346115866
 H        -0.2685419098       -3.1576771872      -11.6995332782
 H        -1.1580535357       -3.3039428200      -13.3000624859
 H        -0.7450724198       -4.7485470520      -12.3966157524
 H        -3.6765205017       -3.5601996336      -13.5694861483
 H        -4.6514292694       -3.8395281088      -12.1290766364
 H        -3.7528111579       -5.1363549439      -12.6308035089
 H        -5.9172627588       -7.4865913859       -6.1643578450
 H        -4.5678140948       -7.2279906327       -7.1880956329
 H        -6.1394976401       -6.5594476168       -7.7264344815
 H        -7.4652735124       -4.9232042713       -5.9528424435
 H        -6.4930223782       -3.8862103371       -7.0073682340
 H        -6.2858583288       -3.6807040063       -5.3128772066
 H        -2.2754492661       -6.1056397900        1.6422173649
 H        -3.1477561377       -6.5976414809        0.1646246803
 H        -3.6093896224       -5.0886953569        0.8955704072
 H        -2.3110399914       -3.1147724671        1.0496070846
 H        -0.9018835733       -2.8981063181       -0.0150358378
 H        -0.7633962726       -3.8853508516        1.3778207555
 H         3.5687059495       -7.1845626874        0.6194363597
 H         4.2179190076       -6.5571013880       -0.8957403187
 H         5.0454320404       -7.7750271734       -0.2256324156
 H         4.1335604941       -8.7157005656       -2.7721187356
 H         2.8938456935       -9.9842887680       -2.3460238291
 H         4.4079628518       -9.9132247067       -1.5613794173
 H        -2.2432697607      -14.0058470832        0.3045946163
 H        -0.5897665478      -13.6407286735        0.8540688710
 H        -1.1674631479      -13.1035739311       -0.8057536231
 H        -3.6448485801      -12.1387096148       -0.5408566498
 H        -3.7845909965      -10.7009284441        0.3515624310
 H        -4.1070052583      -12.3252959253        1.0355573352
 H         0.7480320736      -10.0392564077        4.8951158764
 H         0.9894937330       -9.3064721229        6.4038192394
 H         1.1277018181       -8.3130387767        4.7718415863
 H        -0.8245351090      -10.0333568776        7.2997156756
 H        -2.5231037653       -9.3820587624        7.0759906977
 H        -1.1685132169       -8.4534032273        7.6414650389
 Na        0.0044524242       -7.8906260826        1.8931869568
 Na       -4.9585561815        4.4812375335      -19.1701133945
