232

 C        -1.9801844287       -6.5225091446        6.4024706125
 C        -1.1602666673       -7.3359483274        5.2825628466
 O        -0.7848717111       -6.8656257914        4.2232529692
 C        -0.8193878289       -8.8066281807        5.6511772640
 C        -1.4448187147       -9.5730588715        4.4436443330
 O        -1.1468910474       -9.2688146168        3.2840317506
 C        -2.5121365606      -10.7603268253        4.6576327027
 C        -2.8517933944      -11.4457213189        3.3508240184
 C        -1.7190405875      -11.8890040854        2.4694542783
 O        -0.7583369757      -12.4865918959        2.9361543818
 C        -1.9857942791      -11.8590485933        0.8657770610
 C        -1.1340543739      -10.5825235180        0.5830470276
 O        -1.5943866385       -9.4702561093        0.5206968831
 C         0.3973905637      -10.8290452515        0.6514718442
 C         1.1713376889      -10.2593116732       -0.5200719491
 C         2.1000464872       -9.1780307049        0.0331631597
 O         2.0580556090       -8.7180305267        1.1849144922
 C         2.9490310722       -8.4191043142       -1.0042170287
 C         1.9038646650       -7.5837889480       -1.8799907409
 O         1.2139576821       -8.2503617454       -2.6626958899
 C         1.7377035155       -6.0480427419       -1.6918538864
 C         0.3854700868       -5.3620913592       -1.6415392061
 C        -0.4988427801       -5.6616358363       -0.4045837369
 O         0.0093030874       -6.4620917532        0.3948284659
 C        -1.8954085453       -4.8899342301       -0.2328933244
 C        -2.6435395702       -4.3755753524       -1.5502155529
 O        -2.4761691763       -3.2595820635       -1.9008081585
 C        -3.5332904602       -5.3539358729       -2.4364640980
 C        -4.2909776679       -4.7754808399       -3.5838838018
 C        -4.9859043503       -5.8112369299       -4.5456235836
 O        -5.2485003538       -6.9230243033       -4.1775987301
 C        -5.1538076580       -5.4151952318       -6.0060637909
 C        -4.0252198594       -4.6750069254       -6.7836518790
 O        -3.4882162811       -3.7707743689       -6.1727276229
 C        -3.6938488075       -4.9929973322       -8.1693611788
 C        -2.7761341697       -3.8968227901       -8.9475785940
 C        -2.4461474409       -4.4025658674      -10.3857700909
 O        -1.9635027937       -5.5042748671      -10.6191922604
 C        -2.4485627086       -3.4355386127      -11.6915470081
 C        -2.5311803491       -1.8986808625      -11.3594092891
 O        -2.1156135723       -1.4769502823      -10.2686777777
 C        -2.9404182637       -1.0608712146      -12.5359970498
 C        -2.5513613201        0.4212274449      -12.3643199375
 C        -1.5189429808        0.9603933906      -13.3122675334
 O        -1.3065536248        0.4662369672      -14.3827599642
 C        -0.9428765453        2.3860808249      -12.9796296434
 C        -2.0845551712        3.4417002995      -13.5154544060
 O        -3.0898832673        3.7163597209      -12.8031110128
 C        -2.1048183879        3.9268693915      -15.1058038789
 C        -2.8918701397        5.2281221091      -15.2515660577
 C        -3.8516432737        5.2202898130      -16.3897026265
 O        -4.0276016422        4.2921308341      -17.1267140013
 C        -4.8862457607        6.5468016356      -16.5161716526
 C        -4.6954260001        7.3468925662      -17.8029706872
 O        -4.9778580567        6.8200969498      -18.8763673427
 C        -4.0225922288        8.7545258251      -17.9264552475
 C        -2.7357626923        8.5721562220      -18.7700360906
 C        -1.7782089625        7.6226263037      -18.1038434840
 O        -1.5660026136        7.6223804513      -16.9025839132
 C        -0.7982127486        6.8241802927      -19.1250653774
 C        -1.7649290716        5.9707477061      -19.9632328504
 O        -2.8134983719        5.5617748646      -19.4758114566
 C        -1.4034851744        5.3662096651      -21.3108367708
 C        -1.8953205320        3.9159655503      -21.5241308846
 C        -2.7572991394        3.7944732308      -22.7539486331
 O        -2.9560574065        4.6369811978      -23.6038671185
 C        -3.6885851958        2.3866584447      -22.8895303313
 C        -4.9968475778        2.8800353318      -22.1379647211
 O        -5.0056398705        2.8155484312      -20.9212357451
 C        -6.0312897956        3.5907464718      -22.9564771006
 C        -6.9598201548        4.6203366646      -22.2749860899
 C        -7.7369259489        4.2489482989      -21.0559149863
 O        -7.1617284549        4.3627882524      -20.0126539557
 C        -9.2091125943        3.6925271720      -21.0776659270
 C        -9.3270666519        2.3768967156      -20.2517149682
 O       -10.2309547419        1.6286585018      -20.5609388004
 C        -8.3937026880        1.9662484208      -19.1049710937
 C        -9.1862923718        1.7953904524      -17.7519847055
 C        -8.3962169553        2.6299335849      -16.6226969814
 O        -7.2220233390        2.9427031033      -16.7169359073
 C        -9.2113274402        2.8661957740      -15.2216479547
 C        -9.9891405856        4.2189380575      -15.3628615810
 O       -10.9578982211        4.3462344212      -16.1436236205
 C        -9.4228994272        5.5024806530      -14.6022310598
 C       -10.2822652666        1.7644401761      -15.0790880602
 C        -8.3204096085        2.7795141732      -13.9634285442
 C        -9.9799278946        4.8700131703      -20.4888994326
 C        -9.6349038479        3.4091525697      -22.5711643742
 C        -3.8122672351        1.7599487828      -24.4044421106
 C        -3.0164631868        1.3126446242      -22.0244933929
 C        -0.0965118939        7.8169829686      -20.0527976581
 C         0.3631283663        5.9874856249      -18.6037414100
 C        -6.2584596796        5.7705743369      -16.4024440849
 C        -4.5506919983        7.5058781887      -15.3343358977
 C        -0.9047952844        2.6766870244      -11.4641310043
 C         0.4685378788        2.6327502531      -13.6346490605
 C        -1.1077217187       -3.6858071302      -12.4439780731
 C        -3.6226835496       -3.9525620217      -12.5118978254
 C        -5.5270340256       -6.7469862154       -6.7639563686
 C        -6.4695699908       -4.5452497260       -6.0765943089
 C        -2.7425470108       -5.9099617666        0.7379809414
 C        -1.5228298513       -3.5455032528        0.6253059751
 C         4.0734581204       -7.6578232080       -0.3449040397
 C         3.7536788221       -9.4075436761       -2.0517684964
 C        -1.5168071916      -13.1685796598        0.3796096814
 C        -3.4777472280      -11.6852912415        0.3339001984
 C         0.6973057555       -8.9306437190        5.6415670765
 C        -1.4487363568       -9.1876852532        6.9909261825
 H        -2.9734270956       -7.0235651393        6.5818077380
 H        -2.1974379708       -5.5105200322        6.2497910255
 H        -1.4199123599       -6.5349662457        7.4289630092
 H        -3.3013471180      -10.3172741711        5.2278631510
 H        -2.0304404834      -11.4638347525        5.3311718055
 H        -3.4718321895      -10.7182587289        2.6891315310
 H        -3.3606868110      -12.4103939115        3.4974171571
 H         0.6403967988      -11.8965462583        0.9389350848
 H         0.8326439593      -10.4620293682        1.6211029362
 H         0.5385269177       -9.7010652473       -1.1898939498
 H         1.6882508603      -11.0065186783       -1.0384530948
 H         2.3479576907       -5.5629840369       -2.4540141071
 H         2.3233053678       -5.8600385249       -0.7860271711
 H        -0.2435784550       -5.6829713983       -2.4733402256
 H         0.4041528552       -4.2568767679       -1.6600403066
 H        -4.2868679536       -5.8808335367       -1.7492503315
 H        -2.7542964026       -6.0259519189       -2.7777863900
 H        -3.7403055727       -4.0319288585       -4.1033950427
 H        -5.1095505846       -4.2139261661       -3.1607313352
 H        -4.6475570073       -5.2070213028       -8.6590421876
 H        -3.0737734250       -5.8610307839       -8.1078712904
 H        -1.8066987902       -3.7217815917       -8.4702988626
 H        -3.1833081543       -2.8644225250       -8.8972685079
 H        -3.9925912866       -1.0272562381      -12.7256009481
 H        -2.5063916014       -1.3848572717      -13.5843763843
 H        -2.1916468692        0.5080385873      -11.3563987913
 H        -3.3424818932        1.0943270215      -12.4187706222
 H        -2.5311594439        3.0316490936      -15.5522986784
 H        -1.0915156911        4.0584938879      -15.3407398508
 H        -2.2562830483        6.1436281848      -15.3810473322
 H        -3.3927303356        5.5353243181      -14.2772755346
 H        -3.6443166099        9.1856299264      -16.9535969257
 H        -4.6018723747        9.5273865668      -18.4905652117
 H        -2.2170522750        9.4820494082      -19.0337608647
 H        -3.0983577078        8.2105838859      -19.7873947621
 H        -0.3635749430        5.6265547187      -21.4342731364
 H        -1.9605067678        5.8957148826      -22.0848080502
 H        -2.5822851231        3.4461176019      -20.7472063237
 H        -1.0421005416        3.2114269649      -21.4803990893
 H        -6.5976630808        2.8868069415      -23.5283220239
 H        -5.5020834751        4.0763262815      -23.7498385376
 H        -7.6077147980        4.9597755754      -23.1043532321
 H        -6.3111575088        5.3677038065      -21.8537535935
 H        -7.6248039450        2.6462749480      -19.0162051259
 H        -7.8348112406        0.9625290815      -19.2557358031
 H        -9.1548022522        0.7809064693      -17.4913674672
 H       -10.2281651345        2.1285187220      -17.9426332090
 H        -8.4349178113        5.6899222036      -14.9470430055
 H        -9.4241926654        5.3110554559      -13.5357297888
 H        -9.9842071345        6.5116119305      -14.6544275293
 H       -11.0557425702        2.1507158128      -14.4098150081
 H        -9.8944285745        0.7986851058      -14.7227067562
 H       -10.7853186287        1.5587619901      -16.0020655341
 H        -7.6231237936        1.9019428268      -14.1152384469
 H        -8.8699815663        2.4702248234      -13.0534819823
 H        -7.7402356665        3.7445617888      -13.9155841294
 H        -9.7094981207        4.8674576299      -19.4300157484
 H       -11.0966870568        4.4802810048      -20.4624789096
 H        -9.6391851202        5.7811192712      -20.9953664705
 H        -9.1365944640        2.5165279165      -22.9330383881
 H        -9.3950152303        4.3181559568      -23.1990849000
 H       -10.7213448231        3.1875916378      -22.6262062945
 H        -4.7774669275        1.2957840273      -24.6936363460
 H        -3.0237802207        0.9787870345      -24.5504307372
 H        -3.5647622781        2.6566366593      -25.0231604862
 H        -1.9555699047        1.3009386903      -22.3355427085
 H        -3.4278203723        0.3542048015      -22.1769263852
 H        -3.1991837605        1.3947859941      -20.9121865154
 H         0.1634817522        8.7906967628      -19.7111785716
 H        -0.7376762162        8.0367464751      -20.9223360544
 H         0.6741898312        7.3344807828      -20.5440670533
 H         0.9034315279        6.7060529543      -18.0765799141
 H         0.9004072985        5.7046606692      -19.4670989290
 H         0.1771676813        5.0870822988      -17.9958424855
 H        -6.2850868589        4.9312530067      -17.0780137997
 H        -7.0765429866        6.3454747087      -16.8432557322
 H        -6.4016200325        5.4642420269      -15.3754063216
 H        -3.7395285740        8.0650570183      -15.2385528562
 H        -4.5945262793        6.9522742625      -14.4126585375
 H        -5.3885335639        8.1913744417      -15.3222735838
 H        -0.1776287928        1.9721440477      -11.0507572457
 H        -1.8879218151        2.5518900567      -11.0370198878
 H        -0.5469171987        3.6564419750      -11.2758354156
 H         0.4916338893        2.7678821588      -14.7327737343
 H         1.0623258329        1.7621148143      -13.3745989177
 H         0.9123745787        3.5168593305      -13.1849670298
 H        -0.2497650301       -3.2957982950      -11.9095636338
 H        -1.1583285756       -3.3207851689      -13.5463621781
 H        -0.8308125114       -4.7747202914      -12.5649140451
 H        -3.6725543643       -3.6654923447      -13.5428697335
 H        -4.6158605040       -3.7112746648      -12.0101695851
 H        -3.7220858186       -5.0465595162      -12.4112576066
 H        -6.1572249019       -7.3545922019       -6.1455865054
 H        -4.6630188111       -7.3496902703       -7.0595994399
 H        -6.0666356882       -6.4789004235       -7.6788124220
 H        -7.3059254910       -5.1803944431       -6.0165332371
 H        -6.4425269778       -4.0935254950       -7.0329365386
 H        -6.5141323521       -3.6898195692       -5.3822921855
 H        -2.0200972047       -6.5027247704        1.4045425765
 H        -3.4253097493       -6.6387968392        0.2764641163
 H        -3.3997012747       -5.3184058563        1.3859716290
 H        -2.4600431665       -2.9506150667        0.5363250029
 H        -0.7314174063       -2.9831978127        0.0636154744
 H        -1.1793749092       -3.5903967162        1.6478955482
 H         3.6183084373       -7.0351051086        0.4730673735
 H         4.6047243834       -7.0478382039       -1.0390284533
 H         4.8305189294       -8.2588574416       -0.0230123141
 H         4.2665413149       -8.7640767873       -2.7845544575
 H         3.1038333106      -10.1124481633       -2.4942984423
 H         4.5064882058       -9.9514264464       -1.5580056236
 H        -2.0528751213      -13.9822001511        0.9539650316
 H        -0.4677819876      -13.3128551566        0.7123540286
 H        -1.6121722565      -13.3876137214       -0.6708948372
 H        -3.5592437731      -12.0540439392       -0.7028360973
 H        -3.9050439030      -10.7123032732        0.3195820925
 H        -4.0830553793      -12.4052677045        0.8220390349
 H         0.9605039688       -9.7076156563        4.9017024447
 H         1.1014611241       -9.2714590326        6.5804802716
 H         1.1298058029       -8.0046035992        5.2364769229
 H        -1.0051647166      -10.1581492391        7.1831195908
 H        -2.5478518888       -9.1202496127        7.0120950462
 H        -1.0352499286       -8.5853872297        7.7413391150
 Na       -0.0055766609       -7.8522674872        1.9552450658
 Na       -5.0391738475        4.3727064764      -19.1498031340
