232

 C        -1.8957411468       -6.3268338331        6.4077931370
 C        -1.1966780705       -7.1834031323        5.4217801520
 O        -0.7570964768       -6.7660304570        4.3365166743
 C        -0.7985696759       -8.7711176097        5.7367152343
 C        -1.2571516393       -9.7404197604        4.6112494353
 O        -0.9509574015       -9.4759762962        3.4350687978
 C        -2.3249422185      -10.8258378956        4.7676669729
 C        -3.0023960929      -11.1251737192        3.3833151912
 C        -1.9684790638      -11.9740838669        2.5558317235
 O        -1.0913978940      -12.5134980218        3.1351293385
 C        -2.0260083495      -11.9046443150        0.9421331690
 C        -1.0113668175      -10.7621325310        0.7179191047
 O        -1.4577801215       -9.5982363786        0.6155313277
 C         0.5753541092      -10.9506448626        0.7140827268
 C         1.1877149501      -10.2615780798       -0.5138356114
 C         2.0762594726       -8.9889195940       -0.1075547657
 O         2.0634507735       -8.4437144192        0.9679385827
 C         3.0194820573       -8.4035293487       -1.2702845251
 C         2.0319176558       -7.5147167639       -2.0725190665
 O         1.2375611457       -8.0998524183       -2.7149884824
 C         1.8611979415       -5.9258465926       -1.8668049745
 C         0.3754513056       -5.5478576220       -1.9387812853
 C        -0.4149048451       -5.8467204048       -0.6095398265
 O         0.0781004007       -6.5433228860        0.2572577804
 C        -1.8031118277       -5.1328127997       -0.3719970817
 C        -2.5330879525       -4.6713630725       -1.7122655425
 O        -2.4795639152       -3.4554943018       -1.9260097073
 C        -3.2886112812       -5.6859421112       -2.5547829976
 C        -4.4016680835       -4.8008495093       -3.4289245117
 C        -4.9176751258       -5.7867584849       -4.5131011915
 O        -5.1467854018       -6.9656324657       -4.1011124638
 C        -5.2717030354       -5.5325814074       -6.1054208662
 C        -4.0439068042       -4.8215103699       -6.7675080394
 O        -3.4083507064       -3.9531691149       -6.2680844284
 C        -3.6451454834       -5.0072868179       -8.2874248484
 C        -2.9151398951       -3.9171462698       -8.9898371137
 C        -2.4518321171       -4.4395929692      -10.4074618018
 O        -2.1814504506       -5.6319634140      -10.4853059623
 C        -2.3569417256       -3.4011225046      -11.6403990570
 C        -2.4413682297       -1.8049486888      -11.2956997471
 O        -2.1536626267       -1.3842205533      -10.2409451497
 C        -2.8738042860       -0.9030646034      -12.5044013921
 C        -2.4707216014        0.6017073214      -12.1328856275
 C        -1.5550682141        1.2126775124      -13.2051637846
 O        -1.2640828472        0.5389153254      -14.2113699090
 C        -0.9072705657        2.5930341121      -13.0054557226
 C        -1.9853824319        3.6941145095      -13.5989065412
 O        -2.8684565242        4.0405157187      -12.9191409695
 C        -1.9350803042        4.0890993446      -15.1462988392
 C        -2.9267474956        5.2260074317      -15.2314445577
 C        -3.9295127752        5.2982009401      -16.4376616206
 O        -3.9737387192        4.3587306723      -17.2126323693
 C        -4.8618594097        6.5968892057      -16.6010123624
 C        -4.7647825202        7.2458510958      -18.0347311734
 O        -5.4135650396        6.7994307552      -18.9449952353
 C        -4.0558533366        8.5837334737      -18.1526313755
 C        -2.6326233642        8.5514635426      -18.7124417557
 C        -1.5923933430        7.5636967308      -18.0841255820
 O        -1.3469456951        7.5998613081      -16.8902466668
 C        -0.7956983149        6.8493727800      -19.1425282501
 C        -1.7994635598        6.0319295021      -20.0125570932
 O        -2.8740554848        5.7915459467      -19.5677364555
 C        -1.2958645269        5.1989208953      -21.3096512075
 C        -1.8233702084        3.7723577586      -21.4624507395
 C        -2.9133521531        3.6818077445      -22.6738478434
 O        -3.2438707730        4.6103922295      -23.4033239496
 C        -3.7249225738        2.3225578132      -22.7114539159
 C        -5.0490293086        2.8156838723      -22.1391565640
 O        -5.2972927966        2.7666059357      -20.9530451877
 C        -6.1533995563        3.4864033483      -22.9967693031
 C        -6.7614545532        4.6594038227      -22.2051619969
 C        -7.6888695202        4.2973137081      -21.0850343266
 O        -7.2605600382        4.6588038280      -19.9693026404
 C        -9.0086968786        3.5626853490      -21.1840820447
 C        -9.1065222348        2.2550188414      -20.3622586397
 O       -10.0833870695        1.5983686850      -20.6153879563
 C        -8.3208757351        1.9579030902      -19.0967434691
 C        -9.2196148341        2.2620097699      -17.9210446666
 C        -8.4757526600        2.5984635769      -16.6747754534
 O        -7.2751071252        2.8765607346      -16.5295018757
 C        -9.3253922939        2.7115218242      -15.3903106751
 C       -10.0025893853        4.1564488797      -15.3336134206
 O       -11.1415801048        4.2471681242      -15.6050477434
 C        -9.2553639680        5.2870642439      -14.6306998945
 C       -10.4586229990        1.6490112703      -15.2128807471
 C        -8.3159971963        2.5989358857      -14.1590955705
 C       -10.0499011422        4.5776395840      -20.5283760203
 C        -9.5152299759        3.3372675076      -22.6301034852
 C        -3.9729428600        1.9851267681      -24.1888946241
 C        -3.1231168751        1.1709201706      -21.7610110971
 C        -0.0599674450        7.9237245731      -19.9946350723
 C         0.1294754623        5.8964611195      -18.3442383788
 C        -6.3924454964        6.2466777284      -16.3928474404
 C        -4.6398116891        7.6465934820      -15.4498090800
 C        -0.7906341235        2.9253255439      -11.5447684876
 C         0.4609615798        2.5736810601      -13.7261090544
 C        -1.1626732155       -3.6963895417      -12.5620600174
 C        -3.6863493561       -3.7207941915      -12.3654842447
 C        -5.5904226749       -6.8430772014       -6.8014160055
 C        -6.4766560975       -4.5584096697       -6.1395923764
 C        -2.7555399859       -5.9606942118        0.5443097227
 C        -1.4845749120       -3.8035032334        0.5375816005
 C         4.1077237815       -7.6266559337       -0.5395371776
 C         3.6235164414       -9.5225690773       -2.1210856262
 C        -1.5809837496      -13.2444638452        0.2746989875
 C        -3.5297639585      -11.4307284423        0.4024916767
 C         0.8156642100       -8.8376418702        5.8145691444
 C        -1.2986968520       -9.3482764232        7.1077716687
 H        -2.9455752147       -6.2931911761        6.2215443682
 H        -1.5994397900       -5.2502311224        6.2238220362
 H        -1.6470508824       -6.5199473716        7.4143420649
 H        -3.0352027956      -10.3172083410        5.4924837665
 H        -1.8898267453      -11.7091642527        5.3188517690
 H        -3.2265170330      -10.2539283006        2.8809981615
 H        -3.9146904311      -11.7011737581        3.6219228233
 H         0.7961303696      -11.9708892443        0.8964335326
 H         1.0495989921      -10.4737490791        1.5312669421
 H         0.4223552010       -9.8176591479       -1.1744529686
 H         1.8313037746      -11.0434820616       -1.0240774199
 H         2.3768883377       -5.4243841118       -2.6784343153
 H         2.4303594233       -5.5092384123       -1.0517618962
 H        -0.1083731438       -6.0480957837       -2.7878648756
 H         0.1870078155       -4.4798065650       -2.0433114306
 H        -3.7760754699       -6.3056690339       -1.8842586722
 H        -2.5827862600       -6.1818130824       -3.2437318996
 H        -3.8504363263       -3.9638724846       -3.9864831669
 H        -5.2531211068       -4.3861431760       -2.8435068566
 H        -4.5137255411       -5.3121810790       -8.9163937999
 H        -2.9734670375       -5.9147521145       -8.3680322845
 H        -1.9948770096       -3.5538685897       -8.5537712695
 H        -3.4806848963       -3.0177061659       -8.9448199549
 H        -3.9757087303       -0.9240782013      -12.7428154829
 H        -2.4535875836       -1.1412454711      -13.4126075940
 H        -2.0407889275        0.6139872493      -11.0988994931
 H        -3.3802142338        1.3125987880      -12.1173877515
 H        -2.3213539248        3.2256067906      -15.6841444967
 H        -0.9305344864        4.3815461983      -15.5401687827
 H        -2.3763148111        6.1645457601      -15.1656923129
 H        -3.5721166880        5.3512555311      -14.3852582764
 H        -3.8930623864        9.0792708719      -17.2380467044
 H        -4.6242254681        9.2241286278      -18.7927057683
 H        -2.1529129190        9.5269964104      -18.5181883059
 H        -2.7183471418        8.4898560327      -19.7594440053
 H        -0.2104088471        5.3095449736      -21.2215935522
 H        -1.7724890303        5.8048877715      -22.1356479336
 H        -2.2582096040        3.3762241121      -20.5755852397
 H        -0.9850469021        3.0746335060      -21.6347608620
 H        -6.8717216523        2.6728443745      -23.2753091920
 H        -5.8104530111        3.8708905426      -23.9838622161
 H        -7.2664056693        5.3197632609      -22.8737568564
 H        -5.8479664612        5.1636323989      -21.7606103876
 H        -7.3072027761        2.5090042642      -18.9699969313
 H        -8.0831489802        0.9497315560      -19.0452696139
 H        -9.8756441091        1.3541710186      -17.7290075635
 H        -9.8827228805        3.0762577797      -18.1354687973
 H        -8.1681765249        5.2915242493      -14.7003641475
 H        -9.5659514133        5.3513232203      -13.5772774956
 H        -9.5813152502        6.2186493559      -15.0206379501
 H       -10.7732038206        1.6269936627      -14.1678578251
 H       -10.0160182386        0.6871560902      -15.4854872155
 H       -11.2646230936        1.7638110256      -15.9441642516
 H        -8.1497367278        1.5613416322      -13.9587118510
 H        -8.8162591541        2.9557748481      -13.2882695441
 H        -7.4188845241        3.0574531636      -14.4043388332
 H        -9.6711409202        4.9260847223      -19.5722654757
 H       -10.9307532415        4.0923911985      -20.3708453237
 H       -10.0043357652        5.3646042340      -21.2687246523
 H        -9.0196559103        2.4911947948      -23.0739545183
 H        -9.4423154601        4.2351109705      -23.1778226095
 H       -10.5312083739        3.0220955331      -22.6511244192
 H        -4.9961946157        1.7029933733      -24.2432006446
 H        -3.4726411189        1.1007312560      -24.4507044124
 H        -3.7470996029        2.7564893627      -24.8613479759
 H        -2.2331089399        0.8175575996      -22.2265276474
 H        -3.8500613660        0.3200074455      -21.6387729879
 H        -3.0475985170        1.4173391797      -20.7406116761
 H         0.6743229055        8.4880081292      -19.2577483575
 H        -0.5755221650        8.7741907028      -20.4331848983
 H         0.4699632389        7.4930996152      -20.9204308624
 H         1.2287284066        6.0830539192      -18.4438661208
 H        -0.1975019052        4.8475888786      -18.5624908223
 H        -0.1353254172        6.0793606959      -17.3182331274
 H        -6.9117318297        6.0144365200      -17.3023565793
 H        -6.8808538465        7.2045424474      -16.2098308517
 H        -6.3992044495        5.4542118741      -15.6419736992
 H        -3.5171468946        7.9569493189      -15.2541704297
 H        -5.0041905759        7.2440062152      -14.4880346178
 H        -5.0540039268        8.6290775527      -15.6853051335
 H        -0.2714577522        2.1167886592      -11.0967536997
 H        -1.7769998072        3.1188715591      -11.1407879446
 H        -0.2419523587        3.8756154215      -11.4145745681
 H         0.3097031223        2.2051642138      -14.7113474364
 H         1.1545283370        1.8994231573      -13.2205258234
 H         0.8923558896        3.5785302074      -13.7757259493
 H        -0.1971623761       -3.6059055130      -12.0841070279
 H        -1.2242194699       -3.2921279270      -13.4624816908
 H        -1.1742734578       -4.7338399450      -12.7594711576
 H        -3.7945258036       -3.1735083963      -13.3097607986
 H        -4.5149385390       -3.5872082562      -11.7549788383
 H        -3.7749553486       -4.7599498468      -12.6565937992
 H        -6.6268496230       -7.1382072615       -6.5269509125
 H        -4.8231240813       -7.6057000881       -6.6439250410
 H        -5.6323100045       -6.7340881046       -7.8803757648
 H        -7.1523547788       -4.9097167351       -5.3296385957
 H        -6.9844647936       -4.3756592874       -7.1003986100
 H        -6.1079829524       -3.5778674909       -5.9352005767
 H        -2.1750826288       -6.5470371184        1.2014313314
 H        -3.3491535065       -6.7137269935        0.0293793434
 H        -3.5323545245       -5.3534458460        1.0154224091
 H        -2.3487909355       -3.1370110909        0.6811888161
 H        -0.5597819056       -3.3424356358        0.1484044639
 H        -1.1294358072       -4.1480806067        1.5217302837
 H         3.7513851624       -6.6821995836       -0.2581093846
 H         5.0792941734       -7.5131714271       -1.1157917197
 H         4.4278732218       -8.2630096422        0.3830136168
 H         4.4737033443       -9.0883545724       -2.6375125884
 H         2.9094354636       -9.9198028222       -2.8720478294
 H         3.9373812183      -10.3610463191       -1.4357042865
 H        -1.9815916851      -14.0980850202        0.7494995339
 H        -0.5379582631      -13.3496978273        0.2865978420
 H        -1.8609878913      -13.2195603799       -0.7559273579
 H        -3.5311204335      -11.2366149351       -0.6627818700
 H        -3.8686667194      -10.4557954852        0.8592673642
 H        -4.3490023994      -12.1828891346        0.5117365908
 H         1.2828885577       -9.4982977300        5.1218343269
 H         1.0352387071       -9.1971080514        6.8190959221
 H         1.2523339735       -7.8354254456        5.7916145906
 H        -1.2773467390      -10.4571437211        7.0970181686
 H        -2.2979529072       -8.9383655018        7.2499917683
 H        -0.6804833417       -8.9406634333        7.9691339544
 Na       -0.0792065497       -7.9145219708        2.2505182662
 Na       -5.1042435234        4.4675267326      -19.2243616279
