232

 C        -1.7619724089       -6.3814519579        6.4265937054
 C        -1.0605679842       -7.3270719380        5.3842993605
 O        -0.7773746246       -6.9513651500        4.3043296269
 C        -0.7246737031       -8.7756987571        5.8623513756
 C        -1.1260408212       -9.8011530248        4.7568761408
 O        -0.5583067443       -9.8322010740        3.7095991155
 C        -2.4370664357      -10.6804138406        4.8912520846
 C        -2.9967990294      -11.0182716828        3.5248782393
 C        -2.0982659374      -11.9792246692        2.6764394080
 O        -1.3757164746      -12.8713583563        3.1472542421
 C        -2.0164167331      -11.6767982509        1.0984083644
 C        -0.8990826755      -10.5446972849        0.9008052222
 O        -1.2618618211       -9.4112435801        0.8282518782
 C         0.5810704407      -11.0081405931        0.6709993155
 C         1.2750253614      -10.2277822368       -0.4571462891
 C         1.9952597525       -8.9406840059       -0.0249511134
 O         1.8319209998       -8.2801918581        0.9962864144
 C         2.9197632063       -8.3474409548       -1.2968797190
 C         1.8978319158       -7.4875608888       -2.0816891932
 O         1.2272685559       -7.9944703604       -3.0116434798
 C         1.7831772041       -6.0275078526       -1.8919434356
 C         0.3399319311       -5.6214288636       -2.1314817606
 C        -0.5028262089       -6.0216644632       -0.8285569507
 O         0.1019446872       -6.6820172722       -0.0156600882
 C        -1.8090629980       -5.2879704947       -0.4930231454
 C        -2.3642379324       -4.7055793058       -1.8116555567
 O        -2.3652955928       -3.5339642038       -2.0821076821
 C        -3.1404954624       -5.7775195562       -2.7721793778
 C        -4.0679579479       -5.0715722053       -3.6794339186
 C        -4.8479730315       -6.0645278256       -4.6009160169
 O        -5.0663130737       -7.1449454393       -4.2577223158
 C        -5.2082452365       -5.6117405164       -6.0170017630
 C        -3.9156947097       -4.8787108472       -6.7369649630
 O        -3.2330252846       -3.9842571483       -6.1692839943
 C        -3.8417491820       -5.1211210096       -8.1779714976
 C        -3.2452579941       -3.9145797738       -9.0256144445
 C        -2.6479175251       -4.3676453001      -10.3628723915
 O        -2.1349655167       -5.4126710067      -10.6274386167
 C        -2.5930199707       -3.3145140710      -11.5795731202
 C        -2.4311360878       -1.7897233721      -11.1938922863
 O        -1.9728931791       -1.5494135029      -10.0579712861
 C        -2.7754089068       -0.7479367273      -12.2453195706
 C        -2.3974241691        0.6637764846      -12.0479794502
 C        -1.5064565339        1.2616443643      -13.1473963045
 O        -1.3131742786        0.6663603540      -14.1544325993
 C        -0.9527843114        2.7653671350      -13.0981362117
 C        -1.9649070649        3.8006100273      -13.6426385840
 O        -2.7597566599        4.3175473483      -12.8168176536
 C        -2.0365420005        4.1539308723      -15.1294768487
 C        -2.8987769375        5.4292761476      -15.3292321967
 C        -3.9783603891        5.5025236014      -16.4433398127
 O        -4.0301682061        4.6104843423      -17.2984174871
 C        -4.8767537963        6.7111188575      -16.4929484571
 C        -4.8098954639        7.3936618547      -18.0096307680
 O        -5.3831146378        6.8599023684      -18.9640511698
 C        -4.1941947619        8.7278592190      -18.3657587170
 C        -2.6591083014        8.7710038032      -18.7668973365
 C        -1.6516397998        7.7315291162      -18.2425271016
 O        -1.6068185738        7.6265883745      -17.0306791935
 C        -0.7323765239        6.7716546925      -19.1461885500
 C        -1.7471498723        5.9207447502      -20.1069163590
 O        -2.8967047382        5.7119508143      -19.7087971798
 C        -1.2176923857        5.1250624931      -21.2963848123
 C        -1.8636336964        3.7460507778      -21.2927094928
 C        -2.9946274636        3.7592067782      -22.4178618671
 O        -3.2191714238        4.6332735860      -23.2046305608
 C        -3.8224658694        2.2502998606      -22.4885852062
 C        -5.1913807040        2.7672725606      -21.9357713942
 O        -5.4519178126        2.5566573424      -20.7341088621
 C        -6.1315510575        3.5530981964      -22.8461572721
 C        -6.9119218286        4.7647599404      -22.2461642044
 C        -7.8134191592        4.4317607081      -21.0239963424
 O        -7.3848173091        4.8626375688      -19.9662219287
 C        -9.0373984391        3.5913177468      -21.2641317873
 C        -9.0712940302        2.1873436957      -20.4739694607
 O        -9.7818213781        1.3091020115      -20.9239052622
 C        -8.4193314092        2.1021135548      -19.1175215985
 C        -9.3317444901        2.6844252090      -17.9577768895
 C        -8.5257527489        2.6528572401      -16.5730131058
 O        -7.3639061277        2.8704675262      -16.6018465936
 C        -9.4089766504        2.5112817829      -15.1901337121
 C       -10.0805025475        3.9965410668      -15.0388593164
 O       -11.2453685462        4.1784268163      -15.3381172939
 C        -9.2293215497        5.1435654241      -14.6324887973
 C       -10.5184001251        1.4125853895      -15.3224421904
 C        -8.4262550588        2.2300672066      -13.9662087897
 C       -10.2532360003        4.4575283570      -20.6479945659
 C        -9.3067412799        3.3352923363      -22.7295140682
 C        -3.8094896645        1.9150853443      -23.9586947450
 C        -3.2846615476        0.9876942645      -21.7873508865
 C         0.3212632434        7.5177295136      -20.0325193907
 C         0.1350613120        5.6572327962      -18.3621930355
 C        -6.3080170967        6.0789908727      -16.2245226278
 C        -4.5551335036        7.7102861188      -15.4530508845
 C        -0.5144445976        3.2052517958      -11.6715593812
 C         0.3136083267        2.8761529221      -13.9405831385
 C        -1.3382381602       -3.6884060804      -12.3944483535
 C        -3.8119217885       -3.6154911015      -12.3413460719
 C        -5.7008790420       -6.9386657289       -6.7538408170
 C        -6.2924333262       -4.4858709840       -6.0256545868
 C        -2.6894391895       -6.2907181729        0.2208109246
 C        -1.2302298496       -4.0950529491        0.3317715305
 C         4.1398848263       -7.5197921150       -0.7775187376
 C         3.4106803807       -9.4192241330       -2.2249415027
 C        -1.7305836041      -13.1825438907        0.4200303270
 C        -3.3476506150      -11.1962288104        0.6258454623
 C         0.8509029100       -8.8448338571        5.8004396583
 C        -1.3145452564       -9.1033045157        7.2367503321
 H        -2.8285467681       -6.2287120395        6.1087044720
 H        -1.4525691798       -5.3471343940        6.4146117869
 H        -1.6591630623       -6.7078131128        7.4430959493
 H        -3.2274427199      -10.2543817295        5.4468100604
 H        -2.1120658725      -11.5115831747        5.4554180976
 H        -3.2396925156      -10.0930256225        2.8819464823
 H        -3.8954811048      -11.4984778466        3.8457839350
 H         0.5869901189      -12.1465320937        0.5236866870
 H         1.2015094136      -10.8451123565        1.6673219464
 H         0.4769414261       -9.8765136741       -1.1436788708
 H         1.9557387900      -10.8986748429       -0.9104093148
 H         2.4810112606       -5.3975138215       -2.5156615093
 H         2.1871127972       -5.6917135215       -0.8973553909
 H        -0.1579244125       -6.1513154397       -2.9490087834
 H         0.2124692234       -4.5508315902       -2.3369756315
 H        -3.7453118442       -6.5793437759       -2.2244648755
 H        -2.4328234613       -6.1603598516       -3.5041991703
 H        -3.4935513345       -4.3960639901       -4.2256776433
 H        -4.8588422768       -4.5409007443       -3.1457964340
 H        -4.8856523881       -5.4174391226       -8.4765673084
 H        -3.3091692819       -6.0526012977       -8.4370720407
 H        -2.4385979078       -3.3650536572       -8.4530896472
 H        -3.9348110363       -3.0271744581       -9.1661629291
 H        -3.8004095503       -0.8039273006      -12.5290061851
 H        -2.3104193609       -1.1588418177      -13.2315417880
 H        -1.8015373466        0.6844905049      -11.1391558977
 H        -3.2249492292        1.2871603649      -11.8518866238
 H        -2.5887486281        3.3566357250      -15.7077184650
 H        -1.0326062473        4.2625975605      -15.5679717537
 H        -2.3769024512        6.3929728840      -15.2823088931
 H        -3.6241450201        5.5777917510      -14.5072121284
 H        -4.1510529519        9.4581421225      -17.5273374321
 H        -4.7869536110        9.1876969310      -19.2071539782
 H        -2.2025035753        9.6420306858      -18.2661818704
 H        -2.5912023220        8.9450108564      -19.8865823760
 H        -0.1460351704        5.1141703634      -21.0811550945
 H        -1.5913284444        5.7582093044      -22.0987112516
 H        -2.1066136899        3.3197213129      -20.2961480544
 H        -1.1772501836        3.0108330109      -21.6913864687
 H        -6.8021478406        2.8161616208      -23.2744884762
 H        -5.5642693818        3.9273941332      -23.7077769579
 H        -7.5060546169        5.2286311825      -23.1218288171
 H        -6.1306258265        5.4847508390      -21.9947937982
 H        -7.5148164612        2.5957582561      -19.0194708210
 H        -8.2210700003        0.9772340419      -18.9609025100
 H       -10.2275238756        2.0989704041      -17.8994376046
 H        -9.6862001026        3.7382156175      -18.1783971279
 H        -8.1330966964        4.9246856286      -14.4424308047
 H        -9.6675485629        5.5610603672      -13.7144246430
 H        -9.3204245806        5.9724177603      -15.3451999007
 H       -10.5318811155        0.8946145746      -14.3650231536
 H       -10.4441635117        0.7212127720      -16.1483417791
 H       -11.4471995234        1.9491847984      -15.5595644336
 H        -8.4685728108        1.1651497140      -13.7493424616
 H        -8.8417200371        2.8126938480      -13.1159083805
 H        -7.3664303202        2.4426446033      -14.3015377322
 H        -9.8521867427        4.9138545796      -19.7236129460
 H       -11.1266697846        3.8087735457      -20.4493162790
 H       -10.4560988847        5.1773942392      -21.4217134402
 H        -8.5407848034        2.7353822180      -23.2800203013
 H        -9.4999662229        4.3547130790      -23.1380863000
 H       -10.2039863238        2.7413219828      -22.9690681496
 H        -4.2350030282        0.9270590872      -24.1529447067
 H        -2.7786190294        1.9157822518      -24.3673134093
 H        -4.3784128606        2.7078085244      -24.4932378746
 H        -2.2992177595        0.6129232650      -22.1114571299
 H        -3.9817515552        0.2179433288      -22.0246304623
 H        -3.4237423018        1.1162589727      -20.7009405658
 H         1.0954613523        7.8311355049      -19.5420239261
 H        -0.1433714594        8.3911703455      -20.4519286408
 H         0.6514731455        7.0186763001      -20.8917670208
 H         0.3828063292        4.8615780102      -19.0634591306
 H        -0.4447156657        5.2945055932      -17.5403519876
 H         1.1087247465        6.1152753976      -18.0297134028
 H        -6.6068932610        5.5605772499      -17.1866979667
 H        -7.0968890027        6.7893192475      -16.1348687952
 H        -6.0807520354        5.3244540606      -15.4855493303
 H        -3.6924647736        8.1712599530      -15.8426425591
 H        -4.2857678284        7.2524000376      -14.5263863408
 H        -5.2026644671        8.5670116136      -15.2754031024
 H         0.0321958305        2.4069844741      -11.0822180310
 H        -1.4353805181        3.5835287303      -11.1855201871
 H         0.0787943734        4.1052875059      -11.8195130094
 H         0.3135889812        2.2514203400      -14.8705324414
 H         1.1202729951        2.5498023025      -13.2995548019
 H         0.5219256544        3.9166802003      -14.1497252719
 H        -0.4144420714       -3.5980518262      -11.8327134815
 H        -1.2857672063       -3.1441670727      -13.4370867819
 H        -1.3399114273       -4.7463044120      -12.7047739418
 H        -3.9354474711       -3.2303703550      -13.3374993841
 H        -4.7790972905       -3.4730056109      -11.7685629691
 H        -3.7349504709       -4.6771560688      -12.5669955241
 H        -6.5344560143       -7.3158361347       -6.1773169475
 H        -4.8285676985       -7.5820394632       -6.8200027452
 H        -6.1148470483       -6.9411406152       -7.7793847096
 H        -7.0280406024       -4.7616124748       -5.2892222092
 H        -6.7209912170       -4.4106125103       -7.0247294736
 H        -5.9400002304       -3.4267222922       -5.9376947067
 H        -2.4190892349       -6.4426502691        1.2646851793
 H        -2.3586876669       -7.2768848641       -0.1167197480
 H        -3.7354637613       -6.2498596184       -0.0074925125
 H        -1.8998920911       -3.8042095161        1.0935025958
 H        -0.7643842909       -3.3832127673       -0.2530487522
 H        -0.4439445773       -4.4828718599        0.9975370250
 H         3.9000409564       -6.6467326917       -0.0858780174
 H         4.6580013983       -7.0750885501       -1.6224398000
 H         4.8005948870       -8.2079433118       -0.3281498550
 H         4.1313398387       -9.0178558348       -2.9496922434
 H         2.5706312089       -9.7790134412       -2.8406995789
 H         3.7952565177      -10.2178535748       -1.6209050450
 H        -2.6772620360      -13.7459750304        0.4894106255
 H        -0.9724987617      -13.7753787231        1.0150651910
 H        -1.3630073294      -13.1654707560       -0.6405094075
 H        -3.4075921443      -11.0075218187       -0.4600796878
 H        -3.6101039109      -10.3004250776        1.1376019757
 H        -4.1563928439      -11.8690921096        0.8329900726
 H         1.0099258455       -8.9428615465        4.6971459466
 H         1.3265213121       -9.6892063723        6.3330515127
 H         1.3177335975       -7.9649032691        6.2498279840
 H        -0.8699807099      -10.0344855331        7.5216441806
 H        -2.4142810024       -9.1982085417        7.2362605546
 H        -1.0754899154       -8.3413257762        7.9130246963
 Na       -0.0152807192       -7.8199391134        2.1354554067
 Na       -5.0582840409        4.7108972771      -19.4308213757
