232

 C        -1.7089561972       -6.2764960512        6.2262529891
 C        -1.0599160198       -7.3630662843        5.3776695739
 O        -0.8534946119       -6.9803831479        4.2171925533
 C        -0.5942560552       -8.8152385480        5.8533141451
 C        -1.1076518934       -9.8250021651        4.7439274051
 O        -0.4336826905       -9.9606469330        3.7383577419
 C        -2.4206323400      -10.6067198745        4.9621661050
 C        -2.9875424873      -11.1009985265        3.5874322983
 C        -2.0450165502      -11.9347878850        2.7388413836
 O        -1.6111104879      -12.9620341208        3.1632864232
 C        -2.0388780100      -11.5775577196        1.1787322639
 C        -0.9224358322      -10.6048314741        0.8932120931
 O        -1.2196641403       -9.4214773143        1.0447478658
 C         0.5539228620      -10.9340095238        0.7276936056
 C         1.2805288951      -10.2080615928       -0.4252656659
 C         1.9727800973       -8.9084202251       -0.1413525204
 O         2.0300420266       -8.3678409335        0.9522180105
 C         2.8538613190       -8.3994441481       -1.3563551685
 C         1.8868797259       -7.5097193699       -2.2353645219
 O         1.2509363032       -8.0828674443       -3.0600197297
 C         1.8310298748       -5.9325610762       -2.0072889368
 C         0.4124110806       -5.5002778642       -2.1742297315
 C        -0.3747346091       -6.0101720456       -0.9272726484
 O         0.0194824396       -6.8850608423       -0.1977685200
 C        -1.7087152192       -5.3483217805       -0.5411319028
 C        -2.3996737820       -4.8060681977       -1.8283071217
 O        -2.2687089961       -3.6351920570       -2.1145837741
 C        -3.0696709915       -5.7580039573       -2.8113855722
 C        -4.0079805569       -5.1083401902       -3.6883080908
 C        -4.7538662580       -6.1143907574       -4.6057434013
 O        -4.9728238145       -7.2514253912       -4.2151594000
 C        -5.1460676247       -5.6492266968       -6.0827866768
 C        -4.0435460061       -4.9428341094       -6.8483918594
 O        -3.2509542890       -4.1933128588       -6.2640944791
 C        -3.8693270291       -5.2163187308       -8.3470970725
 C        -3.3503415175       -3.8752778267       -9.0646295859
 C        -2.6549478874       -4.2652377933      -10.3284139466
 O        -2.1909684803       -5.3835159715      -10.4222213982
 C        -2.6718630799       -3.3254171485      -11.5779202127
 C        -2.4398002609       -1.7483070493      -11.0723003200
 O        -1.8933430127       -1.5197956802      -10.0448240758
 C        -2.7313304922       -0.7215062133      -12.1450633982
 C        -2.2044502489        0.7615207382      -11.8714386147
 C        -1.5097444471        1.3877123924      -13.1979820089
 O        -1.3508695597        0.6743464647      -14.1893137260
 C        -0.8792273204        2.8890212944      -13.1486610105
 C        -2.0776732497        3.8822892880      -13.5794421179
 O        -2.7866555583        4.4266652055      -12.8183636686
 C        -2.2611409477        4.0766491678      -15.1163934077
 C        -2.8938721346        5.4819839327      -15.2838750158
 C        -3.8033296725        5.5965767503      -16.5462742289
 O        -3.9973326150        4.6584180603      -17.2983326285
 C        -4.8073461431        6.8551518832      -16.6228603182
 C        -4.8468039839        7.4767852006      -18.0926818813
 O        -5.3201607408        6.9338944595      -19.0635932217
 C        -4.0805559356        8.8351729916      -18.2492016861
 C        -2.6433587617        8.7479868614      -18.9369990597
 C        -1.7233292572        7.6151523830      -18.3014968910
 O        -1.6451231299        7.5310725085      -17.0867290116
 C        -0.8067035698        6.7035638874      -19.2666502562
 C        -1.7309930896        5.8099669261      -20.0520521346
 O        -2.8650663137        5.8320529345      -19.7091439289
 C        -1.1630759990        5.0483870652      -21.2808608258
 C        -1.8382718428        3.6417321601      -21.3082025326
 C        -2.9309926888        3.5423406256      -22.3660963024
 O        -3.2306358412        4.5622088430      -22.9742187449
 C        -3.8214957655        2.3136180540      -22.4412538393
 C        -5.1935589136        2.8444189056      -21.8839507193
 O        -5.4876231473        2.5445190296      -20.6955521768
 C        -6.0300017497        3.6605584192      -22.8408654899
 C        -6.9110701150        4.7919994982      -22.2552913674
 C        -7.8310085112        4.3763966180      -21.0636543018
 O        -7.5274094813        4.7709207967      -19.9304616557
 C        -9.1558516179        3.6596872183      -21.3033626506
 C        -9.1849889032        2.2334220890      -20.4438565927
 O        -9.4345426773        1.2297852156      -21.0667381607
 C        -8.5997885962        2.1833472859      -18.9917975698
 C        -9.3706270645        2.7943787802      -17.8459832740
 C        -8.6033672212        2.6464459502      -16.5849585334
 O        -7.4351243983        2.8827586876      -16.4033087638
 C        -9.4628386311        2.4689369489      -15.2742135232
 C       -10.0480600763        3.9024312983      -15.0272345299
 O       -11.2092104160        4.0192899701      -15.1971418468
 C        -9.2092471589        5.0845751830      -14.5604285388
 C       -10.5116425390        1.3187946952      -15.4258328042
 C        -8.5342532214        2.1230147861      -14.0570735793
 C       -10.4000268816        4.4915452091      -20.7651366228
 C        -9.4898232610        3.3161409750      -22.7631816355
 C        -3.8061554918        1.9071737033      -23.9338866233
 C        -3.2561765877        1.0601297441      -21.6371461737
 C         0.2480507444        7.4903158961      -20.0182889711
 C        -0.0296513970        5.6926322450      -18.3052857430
 C        -6.1333699917        6.0639141519      -16.1241095823
 C        -4.5930966398        7.8970825083      -15.4246262189
 C        -0.4234275049        3.2634773081      -11.6763895641
 C         0.3457942224        2.9275591342      -14.0760675714
 C        -1.4143960496       -3.5830932771      -12.4495043035
 C        -3.9546962566       -3.5427172280      -12.4382617141
 C        -5.6975389913       -6.7866059387       -6.8660200037
 C        -6.1974989982       -4.5406347155       -5.8883621875
 C        -2.6824783407       -6.3380023764        0.1946377781
 C        -1.3881685215       -4.1486571664        0.3708377565
 C         3.9686258243       -7.5065002052       -0.7838565511
 C         3.4151960763       -9.4770869334       -2.2397905770
 C        -1.6138982913      -12.9839886893        0.5646189017
 C        -3.3617086523      -10.9634570282        0.6470285021
 C         0.9944078523       -8.8314459670        6.0259518387
 C        -1.1874443700       -9.2010824409        7.2927574411
 H        -2.8103299378       -6.2581413114        6.0612155469
 H        -1.5009537010       -5.1537040632        6.0970685605
 H        -1.4551196420       -6.5417210387        7.1965622539
 H        -3.1244724640       -9.8050007152        5.2472163655
 H        -2.3469362657      -11.2044583717        5.8352296509
 H        -3.3519112814      -10.2311694339        2.9871565414
 H        -3.8623585397      -11.7516297486        3.8978147704
 H         0.6881427441      -11.9952679190        0.5431170454
 H         0.9504255628      -10.7442085247        1.7748341262
 H         0.5824881046      -10.1829605745       -1.2377390738
 H         2.0693532600      -10.8608682906       -0.6297271889
 H         2.4507435571       -5.3173582285       -2.6168138494
 H         2.2263715734       -5.6420602656       -1.0518287241
 H        -0.1262525347       -5.9900679606       -3.0101102118
 H         0.2134030827       -4.4473312925       -2.2861256955
 H        -3.6520247876       -6.4607234906       -2.2785787304
 H        -2.2555644874       -6.2126089013       -3.4478390272
 H        -3.5585985869       -4.3914549045       -4.3032006618
 H        -4.7722456678       -4.6882182719       -3.0317044944
 H        -4.7610108204       -5.6381825440       -8.7583840114
 H        -3.2074613764       -6.0400401808       -8.5677284838
 H        -2.6302111754       -3.3634461397       -8.3789302294
 H        -4.0743921768       -3.0707812138       -9.1995161440
 H        -3.8506308191       -0.7016776552      -12.4034165251
 H        -2.3507432755       -1.1639938404      -13.1048851207
 H        -1.5425205374        0.7717961890      -11.0924949068
 H        -3.0649126717        1.3915590521      -11.5800087865
 H        -2.8258391655        3.3569263925      -15.6323301184
 H        -1.2766543731        4.1357776748      -15.6248071867
 H        -2.1788745067        6.2325200268      -15.3469085235
 H        -3.5717423282        5.8496167317      -14.4412034183
 H        -3.8965094630        9.3767003373      -17.3076029593
 H        -4.7325844369        9.5101552479      -18.9080714063
 H        -2.0037707301        9.6908221494      -18.8748855590
 H        -2.8651629580        8.5171990735      -19.9536736902
 H        -0.1203171400        4.9612664961      -21.0318305614
 H        -1.4827989853        5.6889891786      -22.0579048647
 H        -2.3353653116        3.4212523304      -20.3047123082
 H        -1.1020220293        2.8004210099      -21.3808991959
 H        -6.6668048624        2.9856011659      -23.3140863926
 H        -5.3566034698        4.0777843217      -23.6272383469
 H        -7.5440406766        5.1991952123      -23.0899591190
 H        -6.2464717068        5.6005951114      -21.9960130925
 H        -7.6191047267        2.7914156761      -18.9510686442
 H        -8.3497812202        1.1503818207      -18.8199344708
 H       -10.3704577439        2.3147056085      -17.7548146815
 H        -9.5904772575        3.8225948067      -17.9733263614
 H        -8.2429591891        4.5691998462      -14.2614839264
 H        -9.6487281459        5.6310881612      -13.6956015861
 H        -9.0314371550        5.8178574822      -15.2754857786
 H       -10.4824866172        0.8632424597      -14.4568763538
 H       -10.3557049436        0.6025964650      -16.1724314304
 H       -11.5077649313        1.7904927467      -15.6578952021
 H        -8.4571354900        1.0279950628      -14.0168604912
 H        -9.0991254834        2.5633553164      -13.1565129640
 H        -7.4836056530        2.4892790682      -14.2712679754
 H       -10.0494706184        4.8879370547      -19.7279572971
 H       -11.2138731297        3.8047433974      -20.6998298589
 H       -10.6642838468        5.2949131047      -21.5599022697
 H        -8.8110387464        2.5311667316      -23.2498913929
 H        -9.5589200600        4.2510391455      -23.3021175091
 H       -10.4954620957        2.8848733936      -22.9017249501
 H        -4.0131740191        0.8045058814      -23.9852281463
 H        -2.7445558310        2.0302223108      -24.2787157977
 H        -4.4784811024        2.4763989662      -24.6300409188
 H        -2.1712125085        0.8259079784      -21.7745610614
 H        -3.7903607938        0.1142002631      -21.9758011352
 H        -3.5026881819        1.2874814558      -20.6001797100
 H         0.9865101809        7.9219273298      -19.2327077249
 H        -0.0248361398        8.2357881956      -20.7274444707
 H         0.9165154490        6.7880643275      -20.5929301202
 H        -0.2871454715        4.6189904099      -18.4407350529
 H        -0.3832080840        6.0160506598      -17.3697422806
 H         1.0129880535        5.7991320503      -18.4130431439
 H        -6.4720765326        5.1930689869      -16.7416322385
 H        -6.9084536686        6.7601136977      -16.1823717581
 H        -5.8254757312        5.7394623882      -15.1416725037
 H        -3.5839245342        8.4092990681      -15.4735112528
 H        -4.6976827440        7.3808138631      -14.5467541148
 H        -5.2584400318        8.6765190595      -15.3707591092
 H         0.2569645957        2.4961539826      -11.3282502433
 H        -1.3352252305        3.2835004388      -11.0718125817
 H         0.0356337112        4.2630599823      -11.6573890455
 H         0.1178485761        2.5768781167      -15.1013376597
 H         1.2321729065        2.4179327396      -13.6927722233
 H         0.5776872839        3.9903475397      -14.0941825517
 H        -0.4067756234       -3.4429456482      -11.8642206267
 H        -1.3960430299       -3.0299222529      -13.3829200824
 H        -1.3545783115       -4.6590275248      -12.8037030158
 H        -3.8290149574       -3.0650974619      -13.4753902398
 H        -4.8822440173       -3.1416955018      -12.0115563898
 H        -4.0968804060       -4.5782955605      -12.7719269432
 H        -6.3286664213       -7.3730649677       -6.1955414390
 H        -4.9098510278       -7.3018091650       -7.3380383616
 H        -6.3957796705       -6.5725044591       -7.6515759525
 H        -7.0388139569       -4.9680630785       -5.3802533432
 H        -6.4446077590       -4.0424566587       -6.8286541901
 H        -5.8225275834       -3.7199128832       -5.3226035149
 H        -2.5647966487       -6.3223558762        1.2298998493
 H        -2.4241931894       -7.4286087997        0.0475246081
 H        -3.7524875463       -6.2230571951       -0.1326891004
 H        -2.2474828839       -4.0693287484        1.0168067786
 H        -1.0663812792       -3.2987748943       -0.1809121347
 H        -0.6449983854       -4.3062974472        1.2049107013
 H         3.7168200124       -7.1055973553        0.1330143129
 H         4.1820828519       -6.6839902686       -1.4288356484
 H         4.8300823721       -8.2141007774       -0.5994160272
 H         3.7776738370       -8.9750252891       -3.0611430066
 H         2.6514329954      -10.1106339206       -2.6857270845
 H         4.1766755448      -10.0396733576       -1.7202476451
 H        -2.5353579290      -13.4648735000        0.2775543814
 H        -1.0710966141      -13.6844312511        1.2461753870
 H        -0.9934612135      -12.8405032583       -0.3932781171
 H        -3.5122984615      -11.0543493535       -0.3926194605
 H        -3.4118720817       -9.9395818112        0.9626437753
 H        -4.2384217178      -11.3939956619        1.1279832258
 H         1.5263121839       -8.3786163901        5.1847486220
 H         1.3780991937       -9.8787037889        6.1472786605
 H         1.1938278467       -8.4499115269        7.0056789987
 H        -1.0747843053      -10.2358740133        7.4070440028
 H        -2.2466910543       -9.0031596744        7.3822835838
 H        -0.6962115569       -8.6401327349        8.0975525423
 Na       -0.0821264514       -7.8184713063        2.1095081121
 Na       -5.0796221115        4.7140039392      -19.5569795216
