232

 C        -1.6468243327       -6.3307945923        6.1748428167
 C        -0.9450372208       -7.3973899970        5.3252860576
 O        -0.8677318058       -7.1424997203        4.0951364307
 C        -0.4813670972       -8.7769489979        5.8833840640
 C        -1.0063167627       -9.7540921252        4.7571356384
 O        -0.3268139389      -10.0398172509        3.7639157966
 C        -2.3413063999      -10.4240254698        4.9955093526
 C        -3.1203676062      -10.9763435049        3.7166694080
 C        -2.1879731115      -11.9798445230        2.8230612472
 O        -1.7021979552      -12.9758395507        3.2553598746
 C        -2.0340117667      -11.5973962035        1.2278188586
 C        -0.8993825676      -10.4954838513        1.1575615336
 O        -1.2529370905       -9.2935624652        1.1833228837
 C         0.6005568757      -10.8901610834        0.8963094674
 C         1.2524215496      -10.3392594697       -0.4447087021
 C         2.0818161820       -9.0049573224       -0.1881940573
 O         2.1122160605       -8.4755221502        0.9168498011
 C         2.8921817702       -8.3497986893       -1.3779466184
 C         1.8793873176       -7.4969289080       -2.3507437693
 O         1.1702483744       -8.0407713270       -3.1454700255
 C         1.8485559095       -6.0347484880       -2.1847744723
 C         0.4381576739       -5.4469358884       -2.0781827740
 C        -0.3252298074       -6.0404100667       -0.9253816109
 O         0.0862836686       -7.0912984044       -0.4324556291
 C        -1.7562159765       -5.3292039418       -0.4802056108
 C        -2.3898530736       -4.8298718077       -1.8991278780
 O        -2.2157853265       -3.6594892655       -2.1931096838
 C        -2.9871318584       -5.8453972596       -2.7703793013
 C        -4.0896777975       -5.1381735324       -3.6847680912
 C        -4.6264197331       -6.1575465444       -4.7157975880
 O        -4.8702394717       -7.3083500222       -4.2467071110
 C        -5.1743681501       -5.7326590998       -6.1101289215
 C        -4.0090991397       -4.9904500171       -6.8973277502
 O        -3.1694101293       -4.3202847254       -6.4215307015
 C        -3.9008327041       -5.1380365254       -8.4770459610
 C        -3.4842208877       -3.8547211247       -9.0964620752
 C        -2.7156591810       -4.2645094013      -10.3523180636
 O        -2.1422761528       -5.3608614869      -10.3754480557
 C        -2.6416195779       -3.1796895783      -11.5791040236
 C        -2.3673098890       -1.7489904788      -11.1198012603
 O        -1.8953374649       -1.5099110316      -10.0347378984
 C        -2.7367759128       -0.5442977723      -12.1828015565
 C        -1.9432505098        0.8380289365      -11.8036578349
 C        -1.4318941011        1.4239962414      -13.1261518920
 O        -1.4329084423        0.8098997653      -14.1844786072
 C        -0.9357870991        2.9028238428      -13.1313774179
 C        -2.0655991181        3.8666681775      -13.5755986566
 O        -2.7437213559        4.4196890119      -12.7469092618
 C        -2.4252326887        4.0753850376      -15.1028459326
 C        -2.9181876849        5.5001472619      -15.3234427242
 C        -3.7543606517        5.6482630029      -16.5918603715
 O        -3.8477561461        4.7588574266      -17.4052916661
 C        -4.7420638524        6.8939277735      -16.6019223162
 C        -4.7120944114        7.5646548679      -17.9668028453
 O        -5.2567188173        7.0861055778      -18.9388868850
 C        -3.8719155651        8.8296816409      -18.1814057160
 C        -2.7161103674        8.5444245466      -19.1100796724
 C        -1.6952663106        7.6288386106      -18.3593298049
 O        -1.7573741923        7.4922335728      -17.1558727173
 C        -0.7587429972        6.7332729557      -19.1495702061
 C        -1.7709224874        5.8955511110      -20.0503722140
 O        -2.9574628654        5.7680266186      -19.8386937916
 C        -1.1110646421        4.9192424519      -21.1858616748
 C        -1.7387600283        3.5251993525      -21.1936630531
 C        -2.9500374210        3.5080491229      -22.1984310505
 O        -3.2076075195        4.5022945713      -22.8637176032
 C        -3.8113360853        2.2500060365      -22.4226455584
 C        -5.1775015554        2.7457936320      -21.9051210224
 O        -5.5075094632        2.6984076816      -20.7360734928
 C        -5.9611135355        3.6787008404      -22.8615017688
 C        -6.9437316746        4.7469460318      -22.2119534096
 C        -7.9234126586        4.3939528537      -21.1033198677
 O        -7.6261111722        4.6028244915      -19.9200267146
 C        -9.3472229538        3.6685017603      -21.2884277937
 C        -9.1117801710        2.3085471999      -20.5258178655
 O        -9.1127901092        1.2389784137      -21.1005978017
 C        -8.6897056272        2.1967344368      -19.0080824886
 C        -9.4107298533        2.8970926476      -17.8450151749
 C        -8.6475804565        2.7182548184      -16.4912655606
 O        -7.4173243826        2.9067817281      -16.4300637578
 C        -9.5007159546        2.3421896007      -15.1487312706
 C       -10.1842208653        3.7146159125      -14.9149097296
 O       -11.3669597056        3.9837326098      -15.1142661652
 C        -9.1635448323        4.9085132507      -14.4785366374
 C       -10.5704560180        1.3442277699      -15.5162698507
 C        -8.5135303990        1.9665953435      -14.0300137225
 C       -10.4763230837        4.5551660628      -20.7705268377
 C        -9.6383115061        3.2758945588      -22.7826565234
 C        -3.8630904978        1.8270706713      -24.0253499561
 C        -3.2943297792        1.1900759656      -21.4112784130
 C         0.1749450515        7.5656103720      -20.0292558746
 C        -0.1305844348        5.6842886102      -18.1483506637
 C        -6.1037286098        6.1737645080      -16.2621444018
 C        -4.5395319933        8.0427042781      -15.5870439015
 C        -0.4618311037        3.2824004612      -11.7215953878
 C         0.2749536587        2.9395850022      -14.1697288861
 C        -1.4756824412       -3.5291594843      -12.4683642489
 C        -3.9784540506       -3.3464846523      -12.3963438174
 C        -5.8443812814       -6.8267740753       -6.9292633263
 C        -6.2636515529       -4.5452857198       -5.7256767875
 C        -2.6484024604       -6.4011003354        0.1869096607
 C        -1.5788250727       -4.1456717697        0.4881588230
 C         4.0222436409       -7.4335144740       -0.7207245637
 C         3.4787352559       -9.5452253848       -2.2541481340
 C        -1.6555201954      -12.8566981920        0.3967806220
 C        -3.2847501356      -11.0100963591        0.6753326392
 C         0.9738500804       -8.7834080703        6.1127456665
 C        -1.1359294200       -9.2030353290        7.2544920680
 H        -2.7031794659       -6.4584247811        6.1252218876
 H        -1.6020287042       -5.2978923082        5.8500471626
 H        -1.2250195634       -6.4036543991        7.2442943957
 H        -2.9258596459       -9.8004351281        5.7182194538
 H        -1.9811309513      -11.2745934071        5.6638028302
 H        -3.5487619549      -10.2693840696        3.0633396940
 H        -3.9426180098      -11.6139443031        4.1800185507
 H         0.6364890856      -11.9745263730        0.8510843727
 H         1.0639041281      -10.5370973036        1.7416442958
 H         0.4499584239      -10.2493244842       -1.1366914536
 H         1.9313721502      -11.1512882133       -0.7717141913
 H         2.2256118925       -5.5876393614       -3.0661556298
 H         2.5196757718       -5.6702434620       -1.4774519350
 H        -0.1703570389       -5.6269801937       -2.9704542555
 H         0.3707963113       -4.3731405549       -1.9091288183
 H        -3.3913059171       -6.5669406663       -2.1236568523
 H        -2.1921159976       -6.2557975487       -3.4225454920
 H        -3.6165730622       -4.3092092166       -4.3066955026
 H        -4.9284148347       -4.8377244718       -3.0570956090
 H        -4.7448236352       -5.5637926653       -9.0158463264
 H        -3.2219568322       -5.9224124059       -8.7456980378
 H        -2.8899802479       -3.2776404638       -8.4124609587
 H        -4.3163510233       -3.2211377327       -9.3097683993
 H        -3.8851343650       -0.3797978977      -12.1707265663
 H        -2.5977531457       -0.8679402302      -13.1945433154
 H        -1.1273552799        0.6315593547      -11.0887639734
 H        -2.6106465007        1.5925867573      -11.3364704485
 H        -3.2833386656        3.4517757116      -15.2138000336
 H        -1.7480082965        3.7774087825      -15.8866985570
 H        -2.1136179967        6.2686661620      -15.4752460792
 H        -3.5367711845        5.8844961890      -14.4991379506
 H        -3.4317437494        9.3332879273      -17.3247574450
 H        -4.4919984104        9.5492521697      -18.6854507259
 H        -2.2041243745        9.4361087750      -19.4831694504
 H        -3.1693428801        8.0034308835      -19.9172617509
 H        -0.0847384542        4.8481804498      -20.8718347644
 H        -1.3920932153        5.3706604602      -22.1470862355
 H        -2.0806829021        3.1062209780      -20.2296279171
 H        -0.9658319779        2.7760318423      -21.5560645057
 H        -6.5787219097        3.1272404587      -23.5864465713
 H        -5.2569087626        4.2806254188      -23.4332383151
 H        -7.4514076541        5.2238925177      -22.9908942816
 H        -6.2478643895        5.5551355397      -21.8687086668
 H        -7.5904055377        2.5469662766      -18.9096984022
 H        -8.7071251886        1.1515166048      -18.8592751452
 H       -10.4722813699        2.5670166356      -17.8535189609
 H        -9.5006131800        3.9444702744      -17.9620490021
 H        -8.2915757019        4.5125167767      -14.1029704372
 H        -9.5701992580        5.6681611684      -13.8074935249
 H        -8.9110096925        5.4974803297      -15.3992544913
 H       -10.8717047580        0.8538089901      -14.6037092944
 H       -10.2461538598        0.5506315134      -16.2146716514
 H       -11.3638242169        1.8880762075      -15.9888050486
 H        -8.0635900547        0.9583245193      -14.2715879186
 H        -9.1214087670        2.0194002877      -13.1344912214
 H        -7.6865428755        2.6522623717      -14.0644387454
 H       -10.2145159060        4.8549465117      -19.7706037718
 H       -11.4538275254        3.9797912808      -20.9077861940
 H       -10.5264175445        5.3960050183      -21.5128287776
 H        -8.9967409085        2.4567532172      -23.0028288465
 H        -9.5963042266        4.0821780460      -23.5158047868
 H       -10.6498344911        2.8874470377      -22.9383748222
 H        -4.3213165143        0.8131739772      -24.1591111703
 H        -2.8420342236        1.8169532782      -24.4406619941
 H        -4.4510730777        2.5681627931      -24.5849423311
 H        -2.2201599169        1.0376256339      -21.6007005458
 H        -3.6862794090        0.1135907660      -21.5128821189
 H        -3.4335839532        1.6856722362      -20.4295584379
 H         0.7242768090        8.4573237057      -19.4770480267
 H        -0.3527237006        7.9543275778      -20.9693386181
 H         1.0801558116        6.9674077649      -20.4455065959
 H        -0.8918524061        4.9519803066      -17.8939531818
 H         0.1423856104        6.2012762339      -17.2267197744
 H         0.6393392030        5.1838981899      -18.6463859960
 H        -6.2734658232        5.3306157151      -16.8669555434
 H        -6.8673837071        6.9711732957      -16.4799345639
 H        -6.0261107909        5.9088130451      -15.2217064663
 H        -3.5681357756        8.4921350262      -15.4038095447
 H        -5.1171727067        7.8160332252      -14.6719048186
 H        -5.1663269059        8.8597133608      -15.9267785845
 H         0.3930716969        2.6745251557      -11.6315658492
 H        -1.1634069770        3.0465296824      -10.9542660167
 H        -0.1412659949        4.3186599699      -11.6767399865
 H        -0.1626364829        2.7548148454      -15.1163456325
 H         1.0852479035        2.2119690596      -14.0070846967
 H         0.7083277880        3.9601103272      -14.1691757965
 H        -0.4931743650       -3.3768918635      -12.0126832159
 H        -1.4744193804       -3.0332655658      -13.3994462795
 H        -1.5277333712       -4.6189481943      -12.7269687519
 H        -3.9314918401       -2.8698900397      -13.4028011393
 H        -4.8036891028       -2.8740941478      -11.9015682229
 H        -4.1967648284       -4.3903065661      -12.7215386635
 H        -6.4018765495       -7.5522941965       -6.3776713201
 H        -5.1898632839       -7.2638938848       -7.6683485530
 H        -6.6071681525       -6.3982617588       -7.5188768259
 H        -7.2264209791       -4.9429141059       -5.4167506556
 H        -6.3583447968       -3.8245427505       -6.5082187036
 H        -5.9134540821       -3.9815281319       -4.8904040521
 H        -2.3827734282       -6.4355882734        1.2590410365
 H        -2.5676348425       -7.4600112107       -0.0397599493
 H        -3.7177563014       -6.1207292220        0.1058432880
 H        -2.5324912191       -3.8807865509        0.9916187869
 H        -1.0565525444       -3.3398016373       -0.1463291569
 H        -1.0202949837       -4.3001547199        1.3940211189
 H         3.8208721864       -7.1802803033        0.2896548939
 H         4.1850110446       -6.4933461281       -1.2701039952
 H         4.8682285690       -8.1229375739       -0.6230224451
 H         3.8161921488       -9.0844379869       -3.1740327021
 H         2.7202280377      -10.1775041927       -2.5927178392
 H         4.2791022743      -10.0551073321       -1.7434265090
 H        -2.6153294461      -13.3450118964        0.1158747335
 H        -1.0217965289      -13.5670292980        0.9197770191
 H        -1.1713773653      -12.5623495996       -0.5132001778
 H        -3.4884357388      -11.2951582777       -0.3281526779
 H        -3.2582498448       -9.9223127949        0.7522529510
 H        -4.1738426388      -11.2474354467        1.2687647179
 H         1.5034229076       -8.0685673566        5.5393894244
 H         1.3430584595       -9.7327726265        5.7949227333
 H         1.2131402182       -8.8407871753        7.1726977250
 H        -1.2265176552      -10.3100561036        7.3137420524
 H        -2.1438481566       -8.8717150440        7.3398122111
 H        -0.5929854330       -8.7900949678        8.1236541233
 Na       -0.0751886019       -7.8449274341        2.0870012600
 Na       -5.1277428391        4.7035426422      -19.5779101481
