232

 C        -1.5560037698       -6.4086317035        6.2429791913
 C        -0.9386034344       -7.4418214368        5.2336210153
 O        -0.8133124777       -7.2424163710        4.0736510891
 C        -0.4879491158       -8.7879714533        5.8728967879
 C        -0.8999639116       -9.8591351248        4.7719592264
 O        -0.1843013516       -9.9723521859        3.8252402611
 C        -2.3267937332      -10.5295187494        4.9659957970
 C        -3.0158037512      -10.9349989778        3.7120883933
 C        -2.2912079669      -11.8935207719        2.8542558908
 O        -1.8215097352      -12.9007486840        3.3717701552
 C        -2.0258719753      -11.5831495738        1.2654678757
 C        -0.8673069688      -10.4430995230        1.2403486114
 O        -1.3241261154       -9.3351048696        1.2925042961
 C         0.6403930870      -10.8073967443        1.0587752711
 C         1.1769611230      -10.3216477714       -0.3281545433
 C         2.0821925924       -9.1305632073       -0.1663123600
 O         2.0710241020       -8.5639487105        0.9189117428
 C         2.8888193702       -8.4254868599       -1.3677977237
 C         1.8334964342       -7.5119092366       -2.3132162836
 O         1.1665366069       -8.1496916996       -3.1322455565
 C         1.8843354907       -5.9382004221       -2.3308941653
 C         0.4786010135       -5.2694997185       -2.0243548683
 C        -0.3451385131       -6.0610190423       -0.8708039005
 O        -0.0175697237       -7.1775813121       -0.4741173177
 C        -1.6874118699       -5.3592731472       -0.4461460803
 C        -2.2945092958       -4.8585488545       -1.8970423541
 O        -2.1593279216       -3.7115623693       -2.1752135311
 C        -2.9878695706       -5.9465638331       -2.7613101464
 C        -4.0934818668       -5.1719210802       -3.7688508385
 C        -4.6947767935       -6.2876574471       -4.7288991692
 O        -4.7522240826       -7.4400205663       -4.4738621730
 C        -5.2179428969       -5.6660913552       -6.0911469585
 C        -4.0219120764       -5.0138434950       -6.9243055081
 O        -3.0914505095       -4.4094473404       -6.3752634859
 C        -4.1139915257       -5.0949940839       -8.4538090976
 C        -3.6268969005       -3.9058330560       -9.2182734059
 C        -2.6755534138       -4.1102571567      -10.4654140299
 O        -2.0703237332       -5.1254467924      -10.5806866802
 C        -2.5901946467       -3.0834236710      -11.6521595764
 C        -2.3818018095       -1.6479438316      -11.1390674703
 O        -1.8876851175       -1.4147275435      -10.0300693130
 C        -2.6879321661       -0.4859144558      -12.0239599380
 C        -1.8087938725        0.7450832571      -11.8309228977
 C        -1.4703414706        1.4162369113      -13.1400778743
 O        -1.5320110539        0.8829177774      -14.2050953053
 C        -0.8910861779        2.9078964158      -13.1363654422
 C        -2.1378798672        3.8073002585      -13.5687727032
 O        -2.6961598536        4.4438599976      -12.6307831824
 C        -2.6103463084        3.9973403807      -15.0031194210
 C        -2.8816445062        5.4440292108      -15.2792550647
 C        -3.7608497223        5.7311140536      -16.5365367030
 O        -3.6970748822        4.9801507892      -17.5073649544
 C        -4.8341104342        6.9689522144      -16.5182252786
 C        -4.5864311923        7.6400503652      -17.9954419269
 O        -5.2624505600        7.1509986187      -18.9162265504
 C        -3.8012016624        8.9182767059      -18.2754252953
 C        -2.7172687473        8.4523041560      -19.2229623577
 C        -1.7993051796        7.5742813335      -18.3784988746
 O        -1.8931930945        7.6342851485      -17.1648506560
 C        -0.8549032954        6.5797901630      -19.1897608618
 C        -1.7081704101        5.6934794665      -20.0437959574
 O        -2.9616247909        5.7124079076      -20.0147814266
 C        -0.9715342554        4.8017091936      -21.0848841999
 C        -1.6873486728        3.5232358808      -21.2297486974
 C        -2.9028285338        3.5540921989      -22.1818468322
 O        -3.1132241502        4.5582342772      -22.8079774552
 C        -3.8085108057        2.2331017424      -22.2948558315
 C        -5.2188885962        2.8682916386      -21.9050366252
 O        -5.4780099536        2.7770384814      -20.7585854116
 C        -6.1137244738        3.6941334580      -22.9164472437
 C        -7.0276412402        4.6973564446      -22.2279577238
 C        -7.9538763840        4.2688005322      -21.1183330097
 O        -7.6294480674        4.5184616373      -19.9627423359
 C        -9.3563555796        3.6358992673      -21.2660637867
 C        -9.0776325510        2.2360294749      -20.4375724125
 O        -8.8604357495        1.3155527379      -21.1915530773
 C        -8.7120287584        2.1391703811      -18.9391339189
 C        -9.4102409677        3.0296444371      -17.8772731665
 C        -8.7001211164        2.7518229906      -16.4756113393
 O        -7.4888699898        2.9134703292      -16.4819872890
 C        -9.5015590303        2.3408602193      -15.2053416011
 C       -10.2335923367        3.6770990544      -14.7850577084
 O       -11.4058666639        3.9057817138      -14.9875168097
 C        -9.2592830454        4.8129669563      -14.3777474074
 C       -10.6297997319        1.2954226410      -15.5566329584
 C        -8.5737114739        1.7390916667      -14.0903585126
 C       -10.4756793265        4.5959103508      -20.7363956460
 C        -9.6765360762        3.2957640191      -22.7990582116
 C        -3.8479382084        1.7263081210      -23.7215464744
 C        -3.4376996441        1.0532061785      -21.3547651305
 C         0.1065969336        7.5327423937      -20.0066749629
 C        -0.1097788296        5.7624733794      -18.1869890455
 C        -6.2069272769        6.3508403928      -16.5278712322
 C        -4.4308621268        8.0264536716      -15.4969454021
 C        -0.3863677526        3.4025102177      -11.7708844402
 C         0.2516768283        2.9950537614      -14.2103049880
 C        -1.4522588187       -3.6072708709      -12.5745923421
 C        -3.9816109315       -3.1591798216      -12.2851310017
 C        -5.9825294395       -6.8209459884       -6.8239889085
 C        -6.2627383501       -4.6205054277       -5.7188134739
 C        -2.5835749413       -6.4707068385        0.1689410323
 C        -1.6206754789       -4.1982687591        0.4784854677
 C         4.0259180836       -7.5641513817       -0.8335676055
 C         3.5882323131       -9.4741963131       -2.2953371301
 C        -1.6750141616      -12.7615906513        0.3814920667
 C        -3.3787715585      -11.0022121871        0.7099810231
 C         1.1457705235       -8.7534898675        5.9861354280
 C        -1.2148915175       -9.0462742537        7.2012136892
 H        -2.6108558526       -6.5687156002        6.4098048496
 H        -1.6565245798       -5.5239260810        5.7138203183
 H        -0.9826662870       -6.2378712092        7.1800102882
 H        -2.8933836475       -9.7757352481        5.5337495889
 H        -2.2033720708      -11.3608436375        5.7350476314
 H        -3.2383663781      -10.1151024434        3.0330073323
 H        -3.9428921830      -11.3582245514        3.9926423912
 H         0.7715184947      -11.8850212580        1.1405083905
 H         1.0781125964      -10.1989026378        1.8272253164
 H         0.3024112957      -10.0652549870       -0.9717235847
 H         1.7182801290      -11.2099794248       -0.7906990884
 H         2.1788135557       -5.6325343863       -3.3588548021
 H         2.7080083436       -5.5656355534       -1.7100659787
 H        -0.1550554070       -5.2398645579       -2.8955055295
 H         0.4574299977       -4.2340767497       -1.6472802087
 H        -3.3955202173       -6.8075729449       -2.1337312244
 H        -2.2077445787       -6.2927985769       -3.3649441013
 H        -3.5785839282       -4.4072700488       -4.4444348749
 H        -4.9325301136       -4.7548243784       -3.1634692813
 H        -5.1104091208       -5.4414764176       -8.8261497041
 H        -3.6121207950       -6.0183029522       -8.7657941978
 H        -3.1289946853       -3.3124218941       -8.4888319868
 H        -4.5035566310       -3.3094595272       -9.4940761648
 H        -3.7124959395       -0.2422852609      -11.9566183425
 H        -2.6372945715       -0.8493217410      -13.0439004927
 H        -0.7488152104        0.4329915692      -11.4034858419
 H        -2.2366286770        1.4391125636      -11.1076506571
 H        -3.5100757724        3.3086118089      -15.1384868602
 H        -1.8860196173        3.6005662638      -15.6926852811
 H        -1.9390064077        6.1037499688      -15.4490833648
 H        -3.4169169249        5.8604631814      -14.4675332841
 H        -3.2313445147        9.2284018829      -17.4153029532
 H        -4.3247040592        9.7528477521      -18.6168871744
 H        -2.1235146199        9.2465047456      -19.5507259101
 H        -3.1215595555        7.8639239477      -20.0803887052
 H         0.0375352931        4.6634293361      -20.6392372182
 H        -1.1571981943        5.3194113726      -22.0793386969
 H        -2.0643969381        3.0543251901      -20.3510406434
 H        -0.9579809458        2.8205336875      -21.6405861826
 H        -6.8312190457        3.0317075536      -23.5356810071
 H        -5.5058146022        4.2840609379      -23.5903051766
 H        -7.5250823968        5.3295125204      -22.9282671987
 H        -6.2962666613        5.4185542501      -21.8106632464
 H        -7.6949334693        2.3520247677      -18.9088529884
 H        -8.8575667122        1.0598114955      -18.6652108511
 H       -10.4619592427        2.8832751964      -18.0090876157
 H        -9.3105716540        4.1395572088      -18.0392049067
 H        -8.3692403490        4.5194260425      -13.8569255691
 H        -9.7552306227        5.6358005083      -13.9672808226
 H        -9.0001012934        5.1976707621      -15.4052540508
 H       -11.0694599774        0.9548922894      -14.6140029705
 H       -10.0685150673        0.3911043899      -15.9296725544
 H       -11.3464575816        1.6147857381      -16.2719979557
 H        -8.0382787871        0.9213471726      -14.5357968034
 H        -9.2675873569        1.4766288380      -13.3765584700
 H        -7.8718318516        2.4446235753      -13.7328815890
 H       -10.2255173228        4.7837877216      -19.7384545103
 H       -11.4420050021        4.0692333762      -20.9425035353
 H       -10.4937288386        5.4631922849      -21.2936522928
 H        -9.0576487560        2.5234803220      -23.1597627878
 H        -9.7154548021        4.1117768435      -23.5161044454
 H       -10.6863888179        2.9473684666      -22.8396297697
 H        -4.6186175841        1.0104846197      -23.9150917809
 H        -2.8850258257        1.3905359064      -24.0483516098
 H        -4.0730714232        2.6171505606      -24.2779574670
 H        -2.4314841521        0.7935819494      -21.7114138786
 H        -3.9312215749        0.1536210589      -21.5034905938
 H        -3.3639987818        1.4575335600      -20.3191564153
 H         0.3461675879        8.3955112303      -19.4911890599
 H        -0.3704561617        7.8001524121      -21.0499880462
 H         1.1211812262        7.1330417821      -20.2585310338
 H        -0.7187822351        5.6065412070      -17.3272227555
 H         0.8250592550        6.2225431373      -17.8356151265
 H         0.0412967181        4.7973806401      -18.7185061628
 H        -6.1993005036        5.6244886603      -17.3519617340
 H        -6.9669467517        7.1740494199      -16.6909332238
 H        -6.3619312558        5.8399208969      -15.5777950300
 H        -3.3971973655        8.2595173004      -15.4278367617
 H        -4.9774493045        7.9069050818      -14.4995303243
 H        -4.9805423213        9.0078807100      -15.7918395147
 H         0.5466084838        2.9151127661      -11.4948617650
 H        -1.1414758660        3.1862302710      -11.0487979063
 H        -0.1762293964        4.4364630809      -11.8502172136
 H        -0.1709064100        2.6818556534      -15.1511537925
 H         0.9748015818        2.2288760960      -13.9573532777
 H         0.7776174986        3.9466393061      -14.2751200384
 H        -0.5725528179       -3.3979340376      -12.1305491947
 H        -1.3839958956       -3.0176554549      -13.5034281944
 H        -1.4787734544       -4.6173672666      -12.8497104564
 H        -4.0617878214       -2.5597942764      -13.1321243810
 H        -4.6880867611       -2.6997058112      -11.5859610019
 H        -4.2729591702       -4.1230042648      -12.6725103314
 H        -6.4825131702       -7.4865686094       -6.1511521703
 H        -5.2908696256       -7.3994285015       -7.4616478500
 H        -6.7708515150       -6.5043413958       -7.5019161308
 H        -7.1671898234       -5.1403615145       -5.4301789552
 H        -6.5064977842       -3.9603844230       -6.5445120675
 H        -6.0018360329       -4.0291075999       -4.8008696516
 H        -2.1421805078       -6.8543276216        1.1519477473
 H        -2.8055319925       -7.3705736972       -0.3398367407
 H        -3.5104168745       -6.0036304793        0.4250777718
 H        -2.6212333275       -3.7633125865        0.6948536570
 H        -0.8874026184       -3.4959522989        0.0241592268
 H        -1.3805246962       -4.4354679588        1.5025722109
 H         3.6891745331       -6.9210153560        0.0808056921
 H         4.2293461256       -6.8521522439       -1.6428161301
 H         4.7746086032       -8.1721079931       -0.4576644610
 H         4.2303919563       -8.9592959483       -3.0724184525
 H         2.8631081702      -10.0333718209       -2.8642610098
 H         4.2051727691      -10.0804920906       -1.6602841185
 H        -2.5336713319      -13.4285000014        0.3023579640
 H        -0.8211322435      -13.2593430920        0.7625738801
 H        -1.4737638122      -12.4324142724       -0.5850213884
 H        -3.3868794106      -11.3107462290       -0.3700621930
 H        -3.5895836139       -9.9292064702        0.7466647674
 H        -4.2478615017      -11.4569196026        1.1775523184
 H         1.4876632221       -7.8950293330        5.4402192443
 H         1.5373329054       -9.5695383557        5.4516657698
 H         1.5489394397       -8.8848082157        6.9730087989
 H        -1.1446278363      -10.1416191748        7.4856545481
 H        -2.3206278779       -8.8711538277        7.1960606554
 H        -0.7611657185       -8.4309561511        7.9651722078
 Na        0.1146942567       -7.8509269751        2.0128707797
 Na       -5.2191051969        4.7844770379      -19.4607501147
