232

 C        -1.4293806476       -6.4464252074        6.1705177166
 C        -0.9516624311       -7.4190053157        5.2228523261
 O        -0.7562782427       -7.1455753184        4.0489305291
 C        -0.4786938792       -8.8463258158        5.8648773427
 C        -0.8483539564       -9.8811509905        4.8274976543
 O        -0.1643109376      -10.0360131415        3.8287663533
 C        -2.2366694456      -10.5945516613        4.9046285437
 C        -2.9186456593      -10.7150321522        3.6244468012
 C        -2.2115228185      -11.8819538349        2.8198304015
 O        -1.8672338157      -12.8992693369        3.3296966434
 C        -2.0599132560      -11.6295424505        1.2508710625
 C        -0.9924018627      -10.4692140058        1.2119033664
 O        -1.3258676743       -9.3195842180        1.4077804904
 C         0.4481242844      -10.8111359687        1.0924230401
 C         1.0574405370      -10.2943915723       -0.2584074182
 C         1.9674404777       -9.0276629750       -0.1571329601
 O         2.1914289057       -8.4595040286        0.9011448789
 C         2.8670721423       -8.4355276727       -1.3672197466
 C         1.8519645858       -7.6381252611       -2.2543700518
 O         1.1356245648       -8.2133236197       -3.0402458700
 C         1.8465015010       -6.0922622424       -2.2835928732
 C         0.5945685433       -5.3320655939       -1.8654613148
 C        -0.3563674046       -6.0187480344       -0.8909955264
 O        -0.0198019117       -7.1090086484       -0.4803358173
 C        -1.7122598189       -5.4206204493       -0.5574946494
 C        -2.3755488964       -4.9394890228       -1.8501649681
 O        -2.1280094375       -3.7910532678       -2.1482228739
 C        -3.0272355410       -5.9849957013       -2.7908038231
 C        -3.9777198745       -5.3170050987       -3.8043912041
 C        -4.6088786939       -6.3559608427       -4.7259013885
 O        -4.5991862085       -7.5407578752       -4.6617768267
 C        -5.2933416020       -5.6223792360       -6.0139162456
 C        -4.1377530198       -5.0680638757       -6.9902611056
 O        -3.1559685105       -4.5525398995       -6.3888771040
 C        -4.2723116174       -5.0551918363       -8.4955169048
 C        -3.6553783974       -3.8002737892       -9.3367097626
 C        -2.6818054471       -4.1166568933      -10.5079965036
 O        -1.9807486603       -5.0940104034      -10.6028181213
 C        -2.6490654442       -2.9939408972      -11.6114731839
 C        -2.2760515391       -1.5585723834      -11.0791300718
 O        -1.8544922885       -1.3771347250       -9.9695517879
 C        -2.6241450344       -0.3829899658      -12.0198934246
 C        -1.6619745677        0.6851667233      -11.8877986320
 C        -1.4034063509        1.4549814755      -13.1879825933
 O        -1.7103870824        0.9119036439      -14.2286612365
 C        -0.8656386131        2.9502630549      -13.1836773779
 C        -2.1589220410        3.8713193125      -13.4857625316
 O        -2.7079641481        4.4434293081      -12.5793070912
 C        -2.7871321830        3.9277348061      -14.9009053154
 C        -2.9449859377        5.4232105871      -15.2254056700
 C        -3.7766159662        5.8110338226      -16.5189104775
 O        -3.6147736669        5.1584586095      -17.5276229483
 C        -4.7948754948        7.0789964259      -16.6067277884
 C        -4.6920187683        7.7632210384      -18.0595920824
 O        -5.2245572492        7.1932604424      -18.9888543481
 C        -3.9839073564        9.0357269967      -18.3731132390
 C        -2.7120223749        8.5728202017      -19.2597532339
 C        -1.8735385049        7.5903945480      -18.4464335438
 O        -1.8316262820        7.6343743203      -17.2304310191
 C        -0.9322645647        6.5037702090      -19.1517325722
 C        -1.6994202229        5.5863588292      -20.1619705323
 O        -2.9062721058        5.5726932581      -20.1873242363
 C        -0.8046066284        4.6562966955      -21.0555821973
 C        -1.5594693479        3.3225471966      -21.2981470208
 C        -2.8448557992        3.5009579319      -22.1929095770
 O        -3.0658261452        4.5295591545      -22.8195305150
 C        -3.8007780969        2.3642762003      -22.2794752943
 C        -5.2670511474        2.9843038554      -21.8082978698
 O        -5.6251099524        2.9366578351      -20.6093333042
 C        -6.1389468082        3.5141183703      -22.8394125975
 C        -7.0563051369        4.7038687823      -22.3224190534
 C        -7.9090538722        4.3149281532      -21.0429949387
 O        -7.5549660744        4.5111108881      -19.9030518563
 C        -9.2978005961        3.5736845305      -21.2359153655
 C        -9.0182462871        2.2225112353      -20.5023601810
 O        -8.6644466994        1.2530363018      -21.1442462995
 C        -8.8673287181        2.0910011012      -18.9856703302
 C        -9.3928550176        3.0740768768      -17.9025255222
 C        -8.7235049953        2.7283919629      -16.5928074803
 O        -7.5666226136        2.9024575750      -16.3978494966
 C        -9.5638960788        2.3005511030      -15.3396667419
 C       -10.2089993944        3.7231043514      -14.7795887849
 O       -11.4172634069        3.7323052325      -14.7863969499
 C        -9.3507511758        4.8296103002      -14.2665015919
 C       -10.6991117914        1.2191426460      -15.6351302739
 C        -8.6590074597        1.5942048866      -14.2705280353
 C       -10.4109913506        4.5433251010      -20.6637189963
 C        -9.6776789888        3.3341739365      -22.6920397192
 C        -3.8053515317        1.6752533072      -23.6689564106
 C        -3.6184194409        1.0852518727      -21.3357497995
 C         0.0105716637        7.4490836121      -20.0191830120
 C         0.0707368455        5.7461937368      -18.1041383742
 C        -6.2588370631        6.5848577181      -16.6356769884
 C        -4.4639313355        7.9039793564      -15.3329641684
 C        -0.2721252603        3.4826223235      -11.8158873745
 C         0.2144615429        3.0627339869      -14.2246678488
 C        -1.5694462799       -3.4912483451      -12.6618495214
 C        -4.0494376766       -2.9920708081      -12.3238146632
 C        -6.0060771751       -6.8240876820       -6.7646289604
 C        -6.3021090504       -4.5565191209       -5.7663227714
 C        -2.5417834868       -6.5654875441        0.1893154885
 C        -1.5041646467       -4.2468278253        0.3946851174
 C         4.0091052986       -7.6085944546       -0.8066623147
 C         3.5236032085       -9.4658749382       -2.3535818825
 C        -1.5972532834      -12.8633166923        0.4972551827
 C        -3.4500094204      -10.9686683276        0.7826342167
 C         1.1043700523       -8.7434401529        5.8860203457
 C        -1.0973382525       -8.9491190358        7.2628601573
 H        -2.3860503501       -6.7031010299        6.6356581286
 H        -1.7771677692       -5.6046442448        5.5332076548
 H        -0.7013356350       -6.1988016799        6.8189531174
 H        -2.7563173071      -10.0736734436        5.6864211638
 H        -2.0824392006      -11.5734530383        5.3076872683
 H        -2.9825268011       -9.7898625415        3.0003976206
 H        -3.9292943326      -10.9975937266        3.7650027088
 H         0.6474904929      -11.8967310400        1.2547577296
 H         0.8485216579      -10.0353864142        1.8730119498
 H         0.2152064696      -10.0450291283       -0.9982355010
 H         1.6271655093      -11.1394567226       -0.6739431094
 H         2.0728784499       -5.7169726049       -3.3475141580
 H         2.6994476555       -5.6572464216       -1.6589522296
 H        -0.0813292223       -5.1398442634       -2.7105945853
 H         0.8161647972       -4.3211620285       -1.5045617693
 H        -3.5954360239       -6.7729862550       -2.2135874339
 H        -2.1520942801       -6.4452007635       -3.2782942086
 H        -3.5721732028       -4.5141125018       -4.3899734257
 H        -4.8764506121       -5.0452144360       -3.1552538900
 H        -5.2957794074       -5.3410287102       -8.8196084708
 H        -3.8307543135       -6.0210144997       -8.8830335198
 H        -3.1039264805       -3.1861147071       -8.5731772097
 H        -4.4909603599       -3.1579637344       -9.6995653287
 H        -3.6163333317       -0.1202278686      -11.8335197880
 H        -2.6948423785       -0.7381280985      -13.0609973156
 H        -0.6997033358        0.2497605817      -11.5532679322
 H        -2.0008192750        1.3453856663      -11.0656917440
 H        -3.6396894230        3.1792971324      -14.8970617450
 H        -2.0542817596        3.4630757532      -15.6122693573
 H        -2.0103145283        5.9101553199      -15.5032325380
 H        -3.3642380274        5.9108706181      -14.3212314885
 H        -3.6474659602        9.6571413804      -17.5561709884
 H        -4.5616502987        9.7134869244      -19.0265940925
 H        -2.0864826690        9.4572289072      -19.4722156024
 H        -3.0150260236        8.0549328729      -20.1867637457
 H         0.0814232425        4.5168291957      -20.3961279002
 H        -0.7385239247        5.1496111639      -22.0509768237
 H        -2.0330599875        2.9132071128      -20.4099243208
 H        -0.9092335936        2.5774448974      -21.6849559714
 H        -6.8882197772        2.7481318980      -23.0870376239
 H        -5.5280934022        3.8083004834      -23.7396855742
 H        -7.7402179264        5.1001872948      -23.1519511856
 H        -6.4243745232        5.5578544646      -22.1992749623
 H        -7.8258738176        2.1706787319      -18.8958667841
 H        -9.1530749026        1.0297194349      -18.7431851173
 H       -10.4725553680        3.0272148619      -17.9018305391
 H        -9.2092908849        4.1671227079      -18.1419876233
 H        -8.7439833484        4.3855655698      -13.3952398047
 H       -10.0397306835        5.6224084949      -13.9473277152
 H        -8.7353912182        5.2783126679      -14.9765978037
 H       -11.3522750063        1.0423085413      -14.7632690439
 H       -10.1156821489        0.3216593580      -15.7237446682
 H       -11.3154465172        1.3843719419      -16.5729761430
 H        -8.0937696242        0.9693734460      -14.8243281192
 H        -9.3342053569        1.1250247951      -13.5885653060
 H        -8.0358811773        2.3164989882      -13.7683837389
 H       -10.0586094788        4.7373059178      -19.6602279294
 H       -11.2893316197        4.1038103154      -20.7757192259
 H       -10.4824435551        5.4669377431      -21.1691085285
 H        -8.9736672592        2.6974431476      -23.2947659752
 H        -9.8394273268        4.2197754711      -23.2707902803
 H       -10.6620603992        2.9233401330      -22.6751188709
 H        -4.7053255403        1.1781800160      -23.8763027271
 H        -2.9532259638        1.0468181258      -23.6495121275
 H        -3.6146793453        2.3653115805      -24.4535190184
 H        -2.7864634837        0.4643355682      -21.6107638210
 H        -4.4015995054        0.4383668612      -21.5843752600
 H        -3.6119175743        1.3578419452      -20.3250185277
 H         0.4519034918        8.2946841833      -19.5635882290
 H        -0.4548578570        7.6769542930      -20.8803825569
 H         0.8531334281        6.9021511246      -20.2740870693
 H        -0.0332081796        6.0963236871      -17.0433400328
 H         1.1141212994        5.8399534320      -18.3910109029
 H        -0.2636231121        4.6820136335      -18.2345400967
 H        -6.4722142126        5.8809034731      -17.5262544509
 H        -6.8560251463        7.4883115597      -16.5986953258
 H        -6.4420100404        6.0710414108      -15.6510123646
 H        -3.3513294083        8.1677206397      -15.2443324147
 H        -4.8333417060        7.3168564028      -14.5077837999
 H        -5.0486717158        8.8276758088      -15.1201272008
 H         0.6100361416        2.9801494975      -11.3837368225
 H        -1.1219099681        3.4482566156      -11.1317434742
 H         0.0416448793        4.4917075724      -12.0376014776
 H         0.0017524953        2.5186664271      -15.1669880231
 H         0.9686787277        2.4794905285      -13.7362177674
 H         0.6196787492        4.0334511432      -14.3781821827
 H        -0.5637718538       -3.3681630486      -12.2246938263
 H        -1.4771418529       -2.7654921649      -13.4535674682
 H        -1.7154310238       -4.4380327948      -13.0772929881
 H        -4.0762696427       -2.3169416865      -13.1554442758
 H        -4.8400242492       -2.6237504590      -11.6932172485
 H        -4.2462397812       -3.9253639148      -12.7336620803
 H        -6.7385592480       -7.3871134315       -6.1188344455
 H        -5.2977064676       -7.5869113199       -7.1174277697
 H        -6.6275675148       -6.5489646996       -7.6607360434
 H        -7.1786751641       -4.9051584197       -5.1907012699
 H        -6.7020335426       -4.2806614748       -6.7977129970
 H        -5.9389812315       -3.6763529901       -5.1756504597
 H        -2.0352357324       -7.0251855461        1.0114519832
 H        -2.9036118900       -7.3968262884       -0.4297445416
 H        -3.4302270352       -6.1111019806        0.6230617057
 H        -2.3983364059       -3.6622931021        0.5103616303
 H        -0.6958045569       -3.6306824582        0.1922245285
 H        -1.5072782715       -4.6873495487        1.4141271805
 H         3.5787826265       -6.6921374354       -0.3866047549
 H         4.5220247303       -7.2723142143       -1.6821380465
 H         4.5149270312       -8.0740746810        0.0559498750
 H         4.3611420071       -9.0219317783       -2.8873199142
 H         2.7626948170       -9.8260824166       -3.1252802715
 H         3.9278370099      -10.2803072986       -1.7164740980
 H        -2.2548056002      -13.6341347004        0.6879381251
 H        -0.6102469979      -13.0666702304        0.8440386675
 H        -1.6046403598      -12.7136302174       -0.5883121860
 H        -3.3230777110      -10.8757077817       -0.3242873531
 H        -3.7273211548       -9.9711997659        1.1462426974
 H        -4.3367058130      -11.5949969097        0.9708899762
 H         1.3332175785       -7.7566553466        5.4870893076
 H         1.6483391856       -9.4684061823        5.2583031368
 H         1.5132522180       -8.8588634451        6.8569506542
 H        -0.8406248764       -9.8453394169        7.8063519281
 H        -2.2314821771       -8.9870010300        7.2567176556
 H        -0.7251742808       -8.0932048714        7.8531527339
 Na        0.3617841124       -7.8545508053        1.9496529995
 Na       -5.3090145041        4.9380516148      -19.2857849854
