232

 C        -1.3825385293       -6.1581621971        5.9939155842
 C        -0.6865248385       -7.3113445497        5.1371484440
 O        -0.4086322959       -7.0582515609        4.0249828708
 C        -0.2122321781       -8.6225869462        5.8171549081
 C        -0.6426939303       -9.7920242298        4.7893043937
 O         0.0070385164      -10.0557936691        3.8170192859
 C        -1.9907225413      -10.4891395513        5.0829725887
 C        -2.9171510507      -10.7460930181        3.8690664042
 C        -2.4255167938      -11.8608600830        2.8249799894
 O        -1.9153149239      -12.8282802507        3.2903936896
 C        -2.1601877583      -11.5781384971        1.1790304169
 C        -1.0802002610      -10.4521816437        1.1710705900
 O        -1.3730182908       -9.3109598094        1.2665300229
 C         0.4399927640      -10.8949633325        0.7968197941
 C         0.8743050271       -9.9800349244       -0.3934836213
 C         2.0547101429       -9.0129752666       -0.0673577824
 O         2.3090531579       -8.6620708783        1.0748307713
 C         2.9172099851       -8.5644891335       -1.3385865384
 C         1.8482538149       -7.6274687689       -2.0844217462
 O         0.8962858522       -8.2192167557       -2.5719512131
 C         2.0634462784       -6.1487212259       -2.2481621970
 C         0.5792476097       -5.5993699108       -2.0390264612
 C        -0.1996004162       -6.2423516982       -0.8524695539
 O         0.2455988342       -7.0770900746       -0.0875540404
 C        -1.6361996165       -5.6726283480       -0.5835602255
 C        -2.3780477529       -5.1586810814       -1.9412550391
 O        -2.3784696035       -3.9685197783       -2.1339359535
 C        -3.2398208226       -6.1784669251       -2.7676743675
 C        -3.9961802678       -5.3562108752       -3.9890193143
 C        -4.3486387790       -6.4123007438       -5.0284688336
 O        -4.0643078920       -7.5267078062       -5.0729270496
 C        -5.2841427091       -5.7631098919       -6.2854706665
 C        -4.2470590992       -5.1141830575       -7.2543794194
 O        -3.1749796077       -4.6588211444       -6.7453635282
 C        -4.4240103780       -4.8763163818       -8.7338709783
 C        -3.7357510378       -3.6520215391       -9.2435342765
 C        -2.8733388826       -3.9250660773      -10.4713737649
 O        -2.1993085577       -4.9044071256      -10.6464069626
 C        -2.8267076587       -2.8739725379      -11.5741140658
 C        -2.3298751460       -1.4280725723      -11.0223688786
 O        -1.7747388547       -1.4814643447       -9.9334211233
 C        -2.4739891093       -0.1896398681      -11.8840798590
 C        -1.2915908837        0.7727092155      -11.9953847450
 C        -1.5110261981        1.6218263056      -13.2737214262
 O        -2.0445452773        1.2412209608      -14.2760660779
 C        -0.9363259896        3.1748924737      -13.3135226216
 C        -2.2475856917        4.0283391375      -13.4536434974
 O        -2.8243514146        4.5536128092      -12.4911101583
 C        -2.8378431202        4.2284932869      -14.8712899392
 C        -3.1886050496        5.6680120041      -15.1068848514
 C        -3.9756960610        5.9468687144      -16.4195796393
 O        -3.9967301306        5.1103863962      -17.2955045091
 C        -4.8477524871        7.1669834588      -16.5909165864
 C        -4.7459902739        7.7800039024      -18.0360708243
 O        -5.3142866794        7.4060432404      -19.0379334336
 C        -3.7326482359        9.0201543031      -18.2040494849
 C        -2.6106324956        8.6976472834      -19.1944942861
 C        -1.7846291094        7.5200794703      -18.5819589797
 O        -1.8573610101        7.4727612768      -17.3635767450
 C        -0.8311520166        6.4954285025      -19.3757767248
 C        -1.6741937831        5.3712779107      -20.1548576680
 O        -2.8901225129        5.2785788178      -20.1462174483
 C        -0.7638761725        4.3679283084      -20.8370424455
 C        -1.4105731849        3.0137927769      -21.1940387855
 C        -2.6619986647        3.2416125243      -22.2134500308
 O        -2.7409069390        4.2127421056      -22.9432337906
 C        -3.9512940901        2.2061899069      -22.0729956106
 C        -5.1075080891        3.1858293464      -21.6010795190
 O        -5.3601374203        3.4637536880      -20.4615946624
 C        -6.1686298254        3.3800986218      -22.5744918205
 C        -7.0362119138        4.5984863722      -22.2380349571
 C        -7.9547470160        4.5128085235      -21.0001773703
 O        -7.6463816555        5.1979708831      -20.0254330952
 C        -9.2119157130        3.6189928188      -21.0899494304
 C        -8.8276242615        2.1263473375      -20.4495809693
 O        -8.4204767645        1.2723338349      -21.1972542938
 C        -9.1275068399        1.8201597671      -19.0275219290
 C        -9.2473630400        3.0004459558      -18.0361294316
 C        -8.7178016474        2.7359377815      -16.5675424884
 O        -7.5919033166        3.0221990030      -16.2624173376
 C        -9.7575169118        2.2396789811      -15.5526218115
 C       -10.4195236208        3.3540711339      -14.6313372871
 O       -11.5887266375        3.3369726173      -14.3403946076
 C        -9.5256426855        4.3814475944      -13.8958322873
 C       -10.8439329467        1.2586416701      -16.1283476808
 C        -8.9444001832        1.3996521094      -14.4774067571
 C       -10.4143814298        4.3179906732      -20.3375218185
 C        -9.7077208206        3.3016650390      -22.4926437861
 C        -4.0845296165        1.5981658785      -23.5309359746
 C        -3.6278852788        1.0082436734      -21.1318150563
 C        -0.0190205268        7.3338948523      -20.3816989507
 C         0.0626686940        5.7502962597      -18.2357409550
 C        -6.2713946035        6.5750734152      -16.3922417025
 C        -4.5077748413        8.3583986953      -15.6370500009
 C        -0.1144816136        3.6099817907      -12.0568736732
 C        -0.0819119970        3.3943786702      -14.5750250002
 C        -1.8075774025       -3.3662066930      -12.6440281407
 C        -4.2267879237       -2.7820865798      -12.0975656287
 C        -6.2266495523       -6.8724315212       -6.9013223979
 C        -6.1586827143       -4.5748178940       -5.8031179558
 C        -2.5583842682       -6.6224416636        0.3145651917
 C        -1.3866346339       -4.2662011002        0.2816712511
 C         4.2972255590       -7.8040225398       -1.1158282255
 C         3.3258756117       -9.8449142146       -2.1465826756
 C        -1.6278318761      -12.9612287810        0.5651097617
 C        -3.4204431541      -11.0869904839        0.4191419905
 C         1.3628265676       -8.5425975600        5.7152046250
 C        -0.7319936411       -8.8039877984        7.2215147416
 H        -1.9641490700       -6.6397232945        6.8336427509
 H        -2.1069897139       -5.5397139432        5.3941438846
 H        -0.6296721110       -5.5900833793        6.4653218173
 H        -2.4758555697       -9.8484747213        5.8693342850
 H        -1.6853240591      -11.4238678974        5.6799026837
 H        -3.2749458664       -9.8216881634        3.3644553880
 H        -3.8239381338      -11.1367216204        4.2267091928
 H         0.4808749112      -11.8695305409        0.5042353235
 H         1.0834642524      -10.5805270971        1.5510925575
 H         0.0499507964       -9.3874165558       -0.7652878558
 H         1.1243568310      -10.6293232618       -1.2462783499
 H         2.2858991802       -6.0482687720       -3.2791234073
 H         2.7589096825       -5.7354254657       -1.5489699408
 H        -0.0597027166       -5.6355927339       -2.9040152711
 H         0.5559713525       -4.5523368898       -1.6835932741
 H        -3.9488084750       -6.6650629019       -2.0194180441
 H        -2.6318351580       -6.9433123187       -3.0851079916
 H        -3.2819108640       -4.6453762816       -4.4077827847
 H        -4.9478824074       -4.9702114253       -3.6063920813
 H        -5.4401634256       -4.9353182836       -9.1230985861
 H        -4.0111948325       -5.7030687571       -9.2868817779
 H        -3.0554433173       -3.4266467199       -8.4702935241
 H        -4.4297349566       -2.8431900958       -9.3741263521
 H        -3.3483031182        0.2499518589      -11.4609180521
 H        -2.8301729347       -0.5190287248      -12.8953684882
 H        -0.2228509598        0.3187920277      -12.1508280259
 H        -1.2460517319        1.3689469347      -11.0926918186
 H        -3.7122698060        3.5603095789      -14.8034789649
 H        -2.2705960384        3.7093903811      -15.5561395633
 H        -2.3508069816        6.4430104039      -15.1588365807
 H        -3.8653094081        5.8224242622      -14.3040421400
 H        -3.2007564172        9.1674103633      -17.2798684867
 H        -4.2116312179        9.9648543254      -18.3230970142
 H        -1.9579949679        9.4996555169      -19.3127414913
 H        -3.0049761614        8.3528987386      -20.1833908865
 H         0.0950191546        4.1321962844      -20.1590500914
 H        -0.4905656349        5.0673754682      -21.6718605091
 H        -1.7225673935        2.4914331451      -20.2803716480
 H        -0.6332161783        2.4099109343      -21.7227484351
 H        -6.8417660888        2.4910020635      -22.4093027340
 H        -5.8714732404        3.5167698942      -23.5876101650
 H        -7.5273784486        4.8837707917      -23.1527139844
 H        -6.3153039276        5.3842979452      -22.0974272364
 H        -8.3668949862        1.1927999351      -18.7058923022
 H       -10.0982088485        1.2081607461      -19.0967426960
 H       -10.2564633378        3.3085242164      -18.0235660154
 H        -8.7086766913        3.8675657198      -18.4793261939
 H        -9.6855077921        4.2593919430      -12.8005573006
 H        -9.6327586611        5.3670883552      -14.2618009633
 H        -8.5232415277        4.0876279294      -14.1378991634
 H       -11.5810623586        1.0628528237      -15.3722455883
 H       -10.3257545982        0.3332121089      -16.3493972828
 H       -11.4132005066        1.6933835341      -16.9169575640
 H        -8.7041922351        0.4392727636      -14.8997051692
 H        -9.6790140730        1.3728329407      -13.6484294534
 H        -8.0932081096        2.0563452896      -14.1453804130
 H        -9.9541909908        5.2350577197      -19.7849694970
 H       -11.0963033646        3.6654412675      -19.8650137740
 H       -11.0245189788        4.8192907907      -21.1265989240
 H        -9.0062653959        2.7181963303      -23.0845032067
 H        -9.7785988657        4.1679427406      -23.1546834650
 H       -10.6768708306        2.8250689708      -22.4234892568
 H        -4.9338934974        0.9069805763      -23.3948314275
 H        -3.1466005878        1.0505021834      -23.7839225195
 H        -4.3558488101        2.2696721414      -24.3882869906
 H        -2.6754996263        0.5219824417      -21.5810937923
 H        -4.4217241194        0.2774147922      -21.2352925918
 H        -3.3996832366        1.3169525056      -20.0577827919
 H         0.7941055214        7.7877791229      -19.6760520336
 H        -0.6146530885        8.1936676492      -20.7605779338
 H         0.6727048459        6.7941948007      -21.1604055851
 H         1.0447739983        6.0301375660      -18.4587844606
 H         0.0261029054        4.6916975807      -18.3499820351
 H        -0.2086623280        6.0157760683      -17.2046034373
 H        -6.3061868566        5.8099140753      -17.1621934613
 H        -6.9596555321        7.3426286308      -16.3182180631
 H        -6.3714061365        6.1347633222      -15.4466051603
 H        -3.4005832119        8.3510190464      -15.5096466556
 H        -4.9212895724        8.2613574101      -14.6324827288
 H        -4.9203630657        9.2684019352      -16.1040825361
 H         0.6627159119        2.8861044485      -11.7615107408
 H        -0.8465593058        3.6911897947      -11.2595210464
 H         0.4015574336        4.5259795049      -12.2157205825
 H        -0.4417105482        2.8239665297      -15.4543883888
 H         0.9455797921        3.0558689333      -14.3778133368
 H        -0.0474000866        4.4568934990      -14.8137007294
 H        -0.8642576436       -3.6217830332      -12.1923846218
 H        -1.4432450026       -2.5545343277      -13.3444037903
 H        -2.1900582359       -4.2090863350      -13.1273613200
 H        -4.2729013320       -2.0785896652      -12.9308999996
 H        -5.0161748159       -2.4095494447      -11.3256100500
 H        -4.5799948832       -3.7956147701      -12.4241426466
 H        -7.1652734745       -7.0745396180       -6.4723403073
 H        -5.7039037979       -7.7786946376       -6.6843201800
 H        -6.3411585295       -6.7797311605       -7.9621281897
 H        -6.7077955486       -4.8927927585       -4.9763295306
 H        -6.9360597187       -4.4458028252       -6.4857608961
 H        -5.6888238185       -3.6788062240       -5.4435991490
 H        -2.3498993600       -6.5976426877        1.4207521785
 H        -2.4710451053       -7.6348445684       -0.0927631770
 H        -3.6124825065       -6.4204612486        0.3082669737
 H        -2.2908340808       -3.7585017607        0.6978262123
 H        -0.9869301427       -3.4220889479       -0.2971908162
 H        -0.6763710934       -4.4972982948        1.1528755410
 H         4.3185509779       -7.2624987337       -0.1133210996
 H         4.5328187410       -7.1772681028       -1.9881217150
 H         5.0045606373       -8.6019819649       -1.1350765176
 H         4.0425075660       -9.6158506794       -2.9236200466
 H         2.4332251635      -10.3085921917       -2.4965423350
 H         3.8243883728      -10.5112896108       -1.5090939276
 H        -2.4710292081      -13.6554582351        0.5848668236
 H        -0.7948900375      -13.3580087351        1.1843355222
 H        -1.3460976099      -12.8651184380       -0.4941368834
 H        -3.2504349789      -10.7971995061       -0.6286065803
 H        -3.8340427926      -10.2290657426        0.8960873150
 H        -4.1686832198      -11.8370878543        0.4900669215
 H         1.9107026784       -7.6759508842        6.1595209946
 H         1.5234225602       -8.6289016891        4.6372894944
 H         1.8427367453       -9.4278824579        6.1071205541
 H        -0.5723376001       -9.8026132625        7.6126601471
 H        -1.8159550688       -8.5487859929        7.3328407740
 H        -0.1797147105       -8.2436706494        7.9266121072
 Na        0.2661789838       -8.1130867247        2.3174511447
 Na       -5.2474406022        5.1167812066      -19.2659390805
