232

 C        -1.3370610721       -6.1300290597        6.0930274118
 C        -0.5055799471       -7.0482547334        5.1165430807
 O        -0.2670415213       -6.8012801770        3.9905699535
 C        -0.0572449636       -8.4862235474        5.6642659424
 C        -0.6320862791       -9.6076450276        4.6365056502
 O         0.0049560483       -9.9227521555        3.6899275063
 C        -2.0056111731      -10.2433865695        5.0642442183
 C        -2.6191290598      -10.5691743124        3.6595816676
 C        -2.1522913925      -11.8549327310        2.9009940626
 O        -1.8874489100      -12.8796711658        3.4315020527
 C        -2.1725300052      -11.7190053337        1.2979140892
 C        -1.0937319239      -10.6655364084        1.0962374118
 O        -1.4105324504       -9.4637008455        1.3276502505
 C         0.4216314999      -10.9224677669        0.8312452643
 C         0.9012883177       -9.9994294053       -0.3264475904
 C         2.1958118320       -9.2476197678       -0.1437376276
 O         2.5212378475       -8.8675922911        0.9574148115
 C         2.9402369747       -8.7778163586       -1.3610806486
 C         1.9248432066       -7.9420905711       -2.1430758117
 O         0.9994670888       -8.4540418154       -2.7816642456
 C         1.9342161043       -6.4168820969       -1.9387869642
 C         0.5177328706       -5.8469054651       -2.0250278748
 C        -0.2847673902       -6.0224748605       -0.7229635278
 O         0.3065208829       -6.5833716630        0.1635954695
 C        -1.7169862779       -5.5062577717       -0.5626791950
 C        -2.4753163759       -5.2028566035       -1.9141982492
 O        -2.4482187709       -4.0932437201       -2.3748242740
 C        -3.1852860136       -6.2392613410       -2.7675780396
 C        -3.8332859356       -5.6101017593       -3.9357120530
 C        -4.2331391636       -6.5070297029       -5.1831260552
 O        -3.8418234576       -7.6105862851       -5.2264605709
 C        -5.1327952054       -5.7739666452       -6.2699312001
 C        -4.1158015897       -4.9696390340       -7.1524350534
 O        -2.9632996960       -4.6466284534       -6.7458617453
 C        -4.4814816586       -4.7374016738       -8.6118946581
 C        -3.7878006120       -3.5266375754       -9.2315876086
 C        -2.9947538329       -3.7912891257      -10.4470615580
 O        -2.6118571618       -4.8810080434      -10.7058929387
 C        -2.9339384888       -2.6245537722      -11.6799149338
 C        -2.2514563368       -1.2816234480      -11.1522254090
 O        -1.6658375133       -1.2777531576      -10.0599390019
 C        -2.5072431383       -0.0565825497      -12.0277788356
 C        -1.3385400224        0.8627140357      -12.2289570793
 C        -1.6027086580        1.8334680082      -13.3717258032
 O        -2.2517516025        1.4749654477      -14.3087182335
 C        -0.9650205389        3.2930026070      -13.3743508538
 C        -2.2754147705        4.1392307263      -13.4707955507
 O        -2.6909142573        4.6378100210      -12.4032875310
 C        -2.9342879311        4.4653683490      -14.8111452997
 C        -3.4563168909        5.9059139453      -14.9932316038
 C        -4.3069834346        6.1540380071      -16.2661428678
 O        -4.3693327687        5.3435981318      -17.1440495313
 C        -5.1047261579        7.5681348960      -16.4995533517
 C        -4.6256179288        8.0001638868      -17.9469871946
 O        -5.3865209296        7.6308779510      -18.8481962276
 C        -3.5481037609        8.9387476623      -18.3198090706
 C        -2.6265396641        8.2295927643      -19.3197628190
 C        -1.6660722284        7.2840286202      -18.5463284571
 O        -1.8323734182        6.9760532738      -17.3778268077
 C        -0.6385622129        6.4742048933      -19.3720918248
 C        -1.5015860343        5.3047434835      -19.9896970838
 O        -2.7473554598        5.3266782574      -19.8290934951
 C        -0.9587117481        4.4077521983      -21.0541141072
 C        -1.7375239939        3.0405466129      -21.0326823037
 C        -2.6403642690        2.8312614695      -22.2291407408
 O        -2.6443650795        3.5961826747      -23.1889755778
 C        -3.8112915263        1.9105004608      -22.1027641683
 C        -5.0200905318        2.9653275714      -21.4635713820
 O        -4.9767629798        3.3677058635      -20.3713633501
 C        -6.0733081191        3.3256872152      -22.4703036320
 C        -6.8578576696        4.6119337964      -22.0664837066
 C        -7.9666666703        4.5233072162      -20.9512379763
 O        -7.7797486311        5.1549108822      -19.9230172453
 C        -9.3768876689        3.7373221279      -21.1151495625
 C        -8.8235756019        2.3965128691      -20.3410607024
 O        -8.0079754374        1.7281281466      -20.9289403856
 C        -9.2606793998        2.0489023115      -18.8778950951
 C        -9.0549870702        3.0659034840      -17.7561827931
 C        -8.6971143635        2.6279328690      -16.2980821867
 O        -7.6821513408        3.0882727239      -15.7665363035
 C        -9.8092769736        1.8743085011      -15.4770003598
 C       -10.4625781295        3.0005723512      -14.5051115567
 O       -11.6794749165        3.0504866077      -14.4283191552
 C        -9.5476702874        3.9997937707      -13.9303553041
 C       -11.0195600936        1.2756096634      -16.3089868930
 C        -9.0852295246        0.7922483007      -14.6497234427
 C       -10.6175209089        4.4210611726      -20.5089061932
 C        -9.7138647783        3.3392432645      -22.6279608595
 C        -4.1089755482        1.3711493250      -23.5459131609
 C        -3.6613799274        0.8015931129      -21.0433079896
 C        -0.0386015944        7.3358756816      -20.5542443942
 C         0.4222692178        5.8420410027      -18.4674441211
 C        -6.6406033372        7.2024048240      -16.5479641364
 C        -4.7537472954        8.6004640948      -15.4012458405
 C        -0.1729631365        3.6561000728      -12.1126239611
 C        -0.1079523361        3.2604730568      -14.6724402457
 C        -1.9495054741       -3.1135260138      -12.8307934961
 C        -4.3794642816       -2.3705179530      -12.1835425908
 C        -5.9023095276       -6.8861794972       -7.0866308636
 C        -6.0916585583       -4.7072705382       -5.7780831065
 C        -2.5178374646       -6.6379091779        0.1717578589
 C        -1.6533283871       -4.2606722658        0.4057140035
 C         4.2071635310       -8.1142278508       -0.8076260088
 C         3.2906569356       -9.9258725508       -2.3311560031
 C        -1.9832419299      -13.1670139174        0.6477117222
 C        -3.6080326650      -11.3116345232        0.9825142819
 C         1.4910923645       -8.5127050995        5.4736079302
 C        -0.4563021697       -8.8388989258        7.0848600743
 H        -2.2397618516       -6.6103511747        6.4844520802
 H        -1.4841724874       -5.2636342198        5.4641210049
 H        -0.7750702826       -5.8526296994        6.9968150459
 H        -2.6333781537       -9.5924741733        5.5865713593
 H        -1.8199192695      -11.0849197737        5.6820382859
 H        -2.5317413403       -9.7399025553        2.9460073223
 H        -3.7296682425      -10.5532383388        3.8694704367
 H         0.5969569543      -11.9556857181        0.4531749918
 H         0.9236359823      -10.6367858342        1.7794597121
 H         0.1431771907       -9.2916953104       -0.5983378508
 H         0.8877860844      -10.6186756150       -1.2431822293
 H         2.5044478775       -5.8847794262       -2.6972002397
 H         2.1716229451       -6.2379813800       -0.8736423583
 H        -0.0230436235       -6.3134283250       -2.8574590412
 H         0.5622555828       -4.7536700043       -2.1952280855
 H        -3.9497935782       -6.8064425707       -2.2073989711
 H        -2.4987762750       -7.0244053350       -3.1040060405
 H        -3.0005738127       -4.9688580008       -4.2634585594
 H        -4.6727373744       -5.0699736624       -3.5717221660
 H        -5.5575280170       -4.6164506656       -8.8479998047
 H        -4.1784497321       -5.5953728142       -9.2495668047
 H        -3.0480204011       -3.1879288532       -8.4338568483
 H        -4.5965376921       -2.7637119277       -9.4438407172
 H        -3.3818685636        0.4530167640      -11.5055766286
 H        -2.8193991150       -0.4610089539      -13.0148915680
 H        -0.3809170668        0.4155109808      -12.4175741393
 H        -1.2171462892        1.4117418298      -11.3853071348
 H        -3.7802006081        3.7534970382      -14.7739791812
 H        -2.3144123667        4.0505980583      -15.5606634839
 H        -2.6433157801        6.6770929107      -15.0338684638
 H        -4.1665818244        6.1511042883      -14.2402972139
 H        -3.1338066495        9.4953664300      -17.4320682523
 H        -4.1385724483        9.7604444095      -18.8027448541
 H        -1.9543746198        8.9726970229      -19.7774600300
 H        -3.1824419721        7.6517558410      -20.1192847891
 H         0.0862008938        4.2569739271      -20.9381187343
 H        -1.1958362669        4.7552049271      -22.0464834805
 H        -2.5102435718        3.0113477846      -20.2693681618
 H        -1.0031186406        2.1984006172      -20.9285578690
 H        -6.8534230247        2.5588232742      -22.5198789179
 H        -5.6924354920        3.5565760785      -23.4037528437
 H        -7.2659938757        4.9681864733      -22.9955250467
 H        -6.0503817264        5.3480891375      -21.7170328343
 H        -8.8454468998        1.0425500672      -18.6234823198
 H       -10.3427625175        1.9064093185      -18.9637623756
 H        -9.9607013135        3.7271610156      -17.6969776094
 H        -8.2476242633        3.6686987746      -18.1348024160
 H       -10.0775919530        4.3859766661      -13.0345446162
 H        -9.5489000488        4.8026591952      -14.6835941409
 H        -8.5061826636        3.6505532503      -13.7043750287
 H       -11.7992472290        0.9454089826      -15.6067782187
 H       -10.7094936824        0.4414187872      -17.0363409279
 H       -11.4963481452        2.0764914773      -16.8158129758
 H        -8.8147776918        0.0647906632      -15.4117720483
 H        -9.7318646628        0.3336789420      -13.9209413940
 H        -8.2526555751        1.3460387053      -14.1951608687
 H       -10.5119693524        4.8566952062      -19.4422806449
 H       -11.2755639079        3.5624538135      -20.3973847213
 H       -11.0228948726        5.1610979141      -21.2023555433
 H        -8.9565404380        2.8448498447      -23.1942209598
 H        -9.8809712440        4.2064549354      -23.3073415363
 H       -10.5059229471        2.5679343444      -22.6549250424
 H        -5.0788178536        0.9385785305      -23.6669612831
 H        -3.3835924688        0.5976619318      -23.7143550340
 H        -3.9688970744        2.1724965966      -24.2411211443
 H        -2.6540970771        0.4613207611      -21.0950321820
 H        -4.3742540810        0.0900887272      -21.1827850582
 H        -3.8207189986        1.1766198989      -20.0335825696
 H         0.1474858403        8.3713649835      -20.2106646484
 H        -0.5835148090        7.3645421150      -21.4577168214
 H         0.8886822133        6.7801993254      -20.7538349834
 H         0.6078537723        4.8056033877      -18.7408685304
 H         0.0777768239        5.8977825685      -17.3765612435
 H         1.3965596603        6.3879136028      -18.5829754129
 H        -6.6341211939        6.4753710990      -17.3783969913
 H        -7.1969493039        8.1799018661      -16.6619546092
 H        -7.0029786847        6.7834056487      -15.5921775967
 H        -3.7756474862        8.9398391065      -15.5128465104
 H        -4.7707878613        8.1421138839      -14.4325542222
 H        -5.4526761091        9.4055305641      -15.5138220322
 H         0.6888901088        2.9462611407      -12.1109700237
 H        -0.7940193709        3.4592406955      -11.2212616490
 H         0.1758426206        4.6818621947      -11.9332688402
 H        -0.7743039589        2.8887711517      -15.4140721437
 H         0.7886933478        2.6455501276      -14.7223487595
 H         0.0884852872        4.2994208692      -14.9530040252
 H        -0.9180558093       -3.1480104738      -12.4673652948
 H        -2.0591831536       -2.4040996352      -13.7814378564
 H        -2.2222693831       -4.1466127903      -13.0978406389
 H        -4.2792263837       -1.9581665588      -13.1224242853
 H        -4.9539537003       -1.7577745688      -11.4999664489
 H        -4.9705364920       -3.2741447258      -12.2298548789
 H        -6.2250187500       -7.6878703625       -6.4279964717
 H        -5.2416053904       -7.5029362524       -7.7648314224
 H        -6.7338545661       -6.4455504205       -7.6671033789
 H        -6.9737782780       -5.1978179786       -5.2749901985
 H        -6.5849276173       -4.1681254589       -6.6146826210
 H        -5.6359264383       -3.9597011692       -5.0253476972
 H        -1.8772148156       -6.8673620647        1.0882489586
 H        -2.8257677235       -7.5119732516       -0.3345515004
 H        -3.3233940925       -6.2095781583        0.7072391653
 H        -2.6222342162       -3.8820254599        0.5623112617
 H        -1.2416410769       -3.3826253955       -0.0514327395
 H        -1.0549862721       -4.5029793800        1.2325577508
 H         3.9109782401       -7.2725447619       -0.1178257760
 H         4.8689626447       -7.8969982320       -1.6050725493
 H         4.6818745228       -8.8562834842       -0.3129048295
 H         3.9737576681       -9.3747043644       -3.0642034198
 H         2.3686873397      -10.2945615442       -2.7717704921
 H         3.8922028089      -10.7549633469       -1.9454233089
 H        -2.8264798423      -13.8705172530        0.8627042781
 H        -1.1256383638      -13.7163460965        1.0431491522
 H        -1.8434403664      -12.9976850843       -0.3881971664
 H        -3.9112084948      -11.3991714267       -0.0890693412
 H        -3.7641286101      -10.2656799292        1.3070054930
 H        -4.3124885761      -11.9115292562        1.5592413185
 H         2.1432582544       -8.3003763902        6.3267691543
 H         1.6641818089       -7.8723313884        4.6383413350
 H         1.8644167627       -9.5062596746        5.1741752716
 H         0.2992471099       -9.4815701784        7.5783676737
 H        -1.4613356056       -9.2030718796        7.2349212516
 H        -0.4361299013       -8.0040249494        7.7366748047
 Na        0.5448896911       -8.1792293004        1.9317619123
 Na       -5.3161696875        5.3804604840      -19.2807477454
