232

 C        -1.1907210661       -6.1914436765        5.9799049762
 C        -0.5491047398       -7.1732907896        5.0865278621
 O        -0.2471041908       -6.8341082351        3.9293829150
 C         0.0302373153       -8.5416355251        5.6686203939
 C        -0.5987349696       -9.5731863454        4.6770525635
 O        -0.0090382861       -9.8178394538        3.5922961134
 C        -1.9280865166      -10.1740058612        4.9740926695
 C        -2.7367842958      -10.5703450132        3.6812544035
 C        -2.1235148506      -11.8331152455        2.9764889465
 O        -1.7876188454      -12.8425210461        3.5670790769
 C        -2.2410291620      -11.7413443661        1.4100126296
 C        -1.2007629715      -10.7437712635        1.0776731153
 O        -1.3733973379       -9.5689908587        1.1888553695
 C         0.3140198896      -11.1833605898        0.7863896774
 C         0.8165320179      -10.2713251060       -0.3406610721
 C         2.0977529834       -9.4101370176       -0.1009496768
 O         2.4090279734       -8.9910616542        1.0102089021
 C         3.0124373212       -8.8344473248       -1.4030997657
 C         1.9086842750       -7.8714498159       -2.2578355305
 O         1.1329330656       -8.4576542999       -2.9572654797
 C         1.9749542353       -6.3379838379       -2.0560128254
 C         0.4876825047       -5.7705337465       -1.9753139994
 C        -0.2596028174       -6.0313672799       -0.6246930651
 O         0.2791318332       -6.5504140150        0.3415628930
 C        -1.8244748344       -5.5344423074       -0.4895404089
 C        -2.4200293322       -5.1721333975       -1.9164580186
 O        -2.3046810381       -4.0148428163       -2.2956573095
 C        -3.0382501511       -6.2470633549       -2.7830319602
 C        -3.8429399196       -5.5859749056       -3.9785864919
 C        -4.2496655832       -6.5395688053       -5.1271944257
 O        -3.8510194092       -7.6636507766       -5.1588790349
 C        -5.0330196511       -5.8154811321       -6.2509954658
 C        -4.0113075859       -5.0172895950       -7.2290001446
 O        -2.9780064054       -4.5802932157       -6.6926821253
 C        -4.3461679122       -4.5350490218       -8.6699316908
 C        -3.7615008057       -3.2644831892       -9.2649429083
 C        -3.1041105250       -3.6833341479      -10.6386325089
 O        -2.6811391684       -4.8083532993      -10.9007102298
 C        -3.0370160155       -2.5666769732      -11.6824983325
 C        -2.3421215928       -1.2726583403      -11.1174148691
 O        -1.6249107311       -1.2852209972      -10.1816868574
 C        -2.5243185077       -0.0869984760      -12.0848215255
 C        -1.3529748946        0.9293664318      -12.1436432808
 C        -1.6305460406        1.8522305584      -13.4141467604
 O        -2.3580693119        1.5700106969      -14.3537781334
 C        -0.9910731706        3.2403225089      -13.4350705027
 C        -2.2477549552        4.2871419339      -13.4702309741
 O        -2.6631749723        4.7311227578      -12.4537997316
 C        -3.0433633210        4.4737988322      -14.9238780902
 C        -3.6572597275        5.8938973119      -14.9412394597
 C        -4.4287197163        6.2707626603      -16.2840462591
 O        -4.5185393835        5.4686474400      -17.1796723679
 C        -5.1775165223        7.6688983323      -16.5017206233
 C        -4.8848357152        8.1018183124      -17.9557939972
 O        -5.4407986402        7.6617631224      -18.9420497621
 C        -3.4510792231        8.8957703399      -18.0483010225
 C        -2.5587686138        8.3098619623      -19.1996115495
 C        -1.6802999852        7.2040077333      -18.5800223876
 O        -1.7916417907        6.9454450789      -17.4089721438
 C        -0.5720620548        6.4017571501      -19.4313635875
 C        -1.5508365047        5.3304782318      -20.0659744359
 O        -2.7056720719        5.3661716405      -19.7281172976
 C        -0.9599824080        4.3770136653      -21.0736311326
 C        -1.7394405912        3.0222358175      -21.0549851184
 C        -2.7441346944        2.9116481157      -22.2297879355
 O        -2.4874492002        3.4022373787      -23.3165887310
 C        -3.9682965511        1.8794242266      -21.9945364937
 C        -5.0492596374        2.7915493340      -21.4827626195
 O        -4.8870993264        3.3615218149      -20.4084133034
 C        -6.1288873275        3.2912328495      -22.4808870051
 C        -6.8889430640        4.6175656418      -22.0492165677
 C        -7.9205087980        4.5776855136      -20.9052155590
 O        -7.6490937976        5.0399216373      -19.7968549377
 C        -9.2356599987        3.7621126939      -21.0992191731
 C        -8.8110327066        2.5181136700      -20.2628919006
 O        -7.9375942167        1.8159996132      -20.7445244456
 C        -9.3067762358        2.1796103184      -18.8524279065
 C        -8.9636522428        3.2339544747      -17.7606530413
 C        -8.7756206484        2.6493852574      -16.3464361845
 O        -7.8202865015        2.8653343905      -15.6708509182
 C        -9.8433931773        1.7664746974      -15.5792476709
 C       -10.4913084817        2.9485450160      -14.5395823003
 O       -11.6890884743        2.9659870947      -14.3894449833
 C        -9.5353695449        3.9382807398      -13.8002559133
 C       -10.9844380101        1.1309122101      -16.3222715394
 C        -9.1287107971        0.6438772485      -14.8110340680
 C       -10.4545085073        4.4617381788      -20.6372931867
 C        -9.5478615274        3.3450755702      -22.5077548924
 C        -4.2633656341        1.2596500236      -23.3550306946
 C        -3.7853322039        0.5105045704      -21.0887192976
 C        -0.0151479319        7.2924115332      -20.5109432248
 C         0.6157512913        5.9319654899      -18.5186868806
 C        -6.7573194293        7.4857388124      -16.4655235449
 C        -4.8113189832        8.8345924513      -15.4488898156
 C        -0.0962293664        3.5250382093      -12.1726365381
 C        -0.0588209671        3.3641304141      -14.6035353282
 C        -2.0189946962       -3.0725233641      -12.7325529556
 C        -4.4653054968       -2.3711855793      -12.1486932016
 C        -5.7603032931       -6.9076747787       -7.1459040531
 C        -6.0525700928       -4.8504666641       -5.7096617724
 C        -2.6460787108       -6.6506136758        0.2713575871
 C        -1.8711773359       -4.2816747447        0.2588160330
 C         4.2928942046       -8.1542929193       -0.8575578358
 C         3.4385346691      -10.0888238698       -2.3553471828
 C        -1.9470685013      -13.0878438589        0.7953696972
 C        -3.6968425414      -11.3617829248        1.0625098781
 C         1.5270190360       -8.4600540974        5.3660346036
 C        -0.3268019614       -8.7625886925        7.0963942817
 H        -2.2508481919       -6.5517608449        6.1606247236
 H        -1.0728853020       -5.1712161176        5.4561370104
 H        -0.7839291651       -6.2091327418        6.9281056752
 H        -2.4631879427       -9.4740358874        5.6091464997
 H        -1.6798784739      -11.0714636940        5.5907838791
 H        -2.9973133083       -9.7890391740        2.8947000394
 H        -3.6818628744      -10.8426840800        4.0957180192
 H         0.5298151303      -12.1455623108        0.5188967703
 H         0.7719104872      -10.9050842419        1.7014165194
 H         0.0361681113       -9.6091276870       -0.6193468371
 H         0.8874280768      -10.8258228045       -1.2541575118
 H         2.4124711187       -5.9616985690       -2.9428365945
 H         2.4103562834       -6.0699023265       -1.1264840039
 H        -0.1035801012       -6.2096241952       -2.7739603352
 H         0.4135672998       -4.6635127309       -2.0225380203
 H        -3.7514506963       -6.9295701065       -2.2163873983
 H        -2.3415313809       -6.9205319720       -3.1261615504
 H        -3.2041574256       -4.8304782878       -4.4057502903
 H        -4.7953960666       -5.1807095673       -3.6090100804
 H        -5.4238568496       -4.4183072850       -8.8480061686
 H        -4.0504630959       -5.2678587120       -9.3959875458
 H        -2.9303596349       -2.9310979479       -8.6248476603
 H        -4.6076267102       -2.5486474937       -9.3376030709
 H        -3.4572831413        0.3584035622      -11.7362156538
 H        -2.6292552664       -0.4829632713      -13.1624653130
 H        -0.3768250212        0.4623304715      -12.3653265287
 H        -1.2264192119        1.5209330625      -11.2180480282
 H        -3.7833701770        3.6781161188      -14.9594036133
 H        -2.3512657518        4.2956472982      -15.6820375158
 H        -2.7352205097        6.5179631788      -15.1321854979
 H        -4.2170554838        6.2161566226      -14.1018099723
 H        -2.9899775394        8.7995659795      -17.0612027079
 H        -3.5634313849        9.9767404848      -18.0896668621
 H        -1.9687851957        9.0786619916      -19.6494139682
 H        -3.1743489440        7.7785209055      -20.0055669971
 H         0.0993280384        4.2651414691      -20.8357389976
 H        -1.0041255335        4.6021394380      -22.1313778809
 H        -2.4471834658        2.9361482147      -20.2081486220
 H        -1.0585494639        2.1302247507      -21.1258098589
 H        -6.9155577293        2.5509779468      -22.5554402282
 H        -5.7371705526        3.5597021101      -23.4172394637
 H        -7.3273337915        5.0219417165      -22.9690935709
 H        -6.0697997537        5.2431176228      -21.7364771716
 H        -8.8806577444        1.2667814387      -18.6155659152
 H       -10.4548853051        2.0045131535      -18.8068745005
 H        -9.7046061059        3.9907798323      -17.7013976254
 H        -8.0009921523        3.6587041992      -18.1290744234
 H       -10.2934473152        4.4006885424      -13.0507742923
 H        -9.0878613047        4.7225858297      -14.4262184181
 H        -8.8400395127        3.4021375856      -13.2677719001
 H       -11.8391753703        0.9512523629      -15.6640126274
 H       -10.5722719210        0.2172319113      -16.7142321990
 H       -11.3797056916        1.7267454680      -17.1820796750
 H        -8.6513650092        0.0353249126      -15.5684000482
 H        -9.9079320522        0.0024677122      -14.2557665360
 H        -8.4398196162        1.2530189248      -14.1301080928
 H       -10.1742996317        4.9701143087      -19.6327910065
 H       -11.1865434144        3.7193022810      -20.3545528938
 H       -10.8057840903        5.2487430247      -21.4282175649
 H        -8.8607945653        2.7590107801      -23.1906534387
 H        -9.8268057955        4.1800922569      -23.1505796748
 H       -10.3309877385        2.5950964195      -22.4102434550
 H        -5.2803587775        0.8749108703      -23.3775761386
 H        -3.6292352676        0.3717203223      -23.4897295763
 H        -4.1693156080        2.0205097218      -24.1363075942
 H        -2.7447143382        0.2606474674      -21.3252245382
 H        -4.5557259706       -0.1956699715      -21.3662082380
 H        -3.8896001407        0.5946536967      -20.0179131772
 H         0.1319058653        8.3438961466      -19.9318787797
 H        -0.7856439246        7.5005284689      -21.2996671325
 H         0.9198928875        6.8659273149      -21.0250150415
 H         0.4708821540        4.8555590337      -18.3279082008
 H         0.5024681823        6.4261430625      -17.5674394105
 H         1.6448843307        6.0357448484      -18.9513937671
 H        -7.0566724142        6.6261975320      -17.1451016233
 H        -7.0632008232        8.4734059274      -16.7147953738
 H        -7.0461436094        7.3856046479      -15.4212050798
 H        -3.7558115926        9.1791197772      -15.4981580300
 H        -4.9324975612        8.4635591843      -14.5193761612
 H        -5.4317209704        9.6059684866      -15.7006077858
 H         0.5912403063        2.6487540814      -12.0054357900
 H        -0.7346078932        3.7178900357      -11.2849455263
 H         0.5019302024        4.4384012727      -12.2019530455
 H        -0.4376516635        3.0174230067      -15.5878689755
 H         0.8760558088        2.8197825343      -14.4436563975
 H         0.1470355699        4.4152851071      -14.6430660985
 H        -0.9836202678       -3.1892526386      -12.1810136366
 H        -1.9617743559       -2.3864086900      -13.5884179043
 H        -2.2971935101       -4.1154479396      -13.0653975441
 H        -4.3690401158       -1.9316916330      -13.1300600820
 H        -5.0038602969       -1.7282080033      -11.4136061329
 H        -5.0769848807       -3.2588496908      -12.1630423416
 H        -5.9724718924       -7.8638621570       -6.6329929306
 H        -5.1566174441       -7.2524120843       -7.9890400667
 H        -6.6848111143       -6.4532237602       -7.5778426975
 H        -6.6386603306       -5.4473457603       -4.9768220591
 H        -6.8408571503       -4.6066357746       -6.4716222154
 H        -5.7306075109       -3.8785231654       -5.2496706046
 H        -2.2388728320       -6.8401536334        1.2609513712
 H        -2.7171273573       -7.6198295431       -0.3139684853
 H        -3.6531362242       -6.2942423009        0.5275339713
 H        -2.8428342084       -3.8792585787        0.1383559320
 H        -1.2743305735       -3.4974775209       -0.1264387472
 H        -1.4690953408       -4.4446318944        1.2898578234
 H         3.9731255643       -7.2008974971       -0.5197498884
 H         5.0445086155       -8.1660867273       -1.6032285862
 H         4.7498074771       -8.7528759312       -0.0192850745
 H         4.0537841750       -9.6578595761       -3.1377059727
 H         2.5102646954      -10.5792950526       -2.7531510054
 H         4.0510329442      -10.8404505438       -1.8690534857
 H        -2.5293200930      -13.9110237469        1.1573369188
 H        -0.9100222701      -13.4441088655        0.9987279378
 H        -2.0328557365      -12.8913861548       -0.3152184213
 H        -3.9543721184      -11.5667379403        0.0051222332
 H        -3.9447422958      -10.3375765435        1.2980590481
 H        -4.3666300914      -11.9919312037        1.6296642851
 H         2.1993669366       -7.9138097157        6.0789484301
 H         1.6172436551       -8.0610904850        4.3099462052
 H         1.9881835288       -9.4447612424        5.4127278457
 H         0.2466425532       -9.4976641662        7.5700461976
 H        -1.3892149462       -8.8981928000        7.3157867659
 H        -0.1246874955       -7.9042903057        7.6841729730
 Na        0.6858497701       -7.9378047315        1.9543102457
 Na       -5.3973864379        5.2922572827      -19.2627323993
