232

 C        -1.1587963969       -6.1572694906        5.9157667311
 C        -0.4157666550       -7.1109694414        5.0154064572
 O        -0.3016699402       -6.8541654188        3.7852729425
 C         0.1542102290       -8.5041421695        5.5487422389
 C        -0.5775041605       -9.5767803972        4.6018782414
 O        -0.0251340432       -9.7098511777        3.4904913586
 C        -1.9259811332      -10.2693675820        5.0103037158
 C        -2.8544814100      -10.6768138497        3.8321403623
 C        -2.2839256131      -11.8698908550        3.1181869613
 O        -1.6402557182      -12.7099381575        3.7288037272
 C        -2.2663753389      -11.8551312298        1.4866285241
 C        -1.1148168735      -10.6428442458        1.0990934963
 O        -1.3736477751       -9.4926934260        1.0286564709
 C         0.2786308556      -11.1889856305        0.6495765657
 C         0.9378419546      -10.4497634746       -0.5601518174
 C         2.0637262583       -9.5475149514       -0.2118532622
 O         2.2926590620       -9.1518265664        0.9370302829
 C         2.9233952610       -8.9547505406       -1.3521795723
 C         1.9941988695       -7.9314318340       -2.1893474920
 O         1.3332018252       -8.4008680734       -3.0806005472
 C         1.8868300151       -6.4069484391       -2.0120038772
 C         0.4226751521       -5.7259969300       -1.8768822971
 C        -0.3235864517       -6.0217636939       -0.5978732704
 O         0.2554415256       -6.4615328951        0.3926126708
 C        -1.8560698003       -5.5894930567       -0.4811747976
 C        -2.2874937148       -5.2110467341       -1.9861741335
 O        -2.1610884366       -4.0199145909       -2.2118354393
 C        -2.9500026197       -6.2902393841       -2.8621091873
 C        -3.8450742928       -5.4857947700       -3.9816960841
 C        -4.1186966813       -6.4837181699       -5.1539990494
 O        -3.9330442036       -7.7491714292       -5.1220450723
 C        -4.9381569206       -5.8366416826       -6.3838167992
 C        -3.9509445369       -4.8098963017       -7.1388959735
 O        -2.9362052486       -4.4843579985       -6.6626424145
 C        -4.4305266878       -4.6012875810       -8.5596393657
 C        -3.6422124624       -3.3148495349       -9.2048015204
 C        -3.1072205803       -3.5815162949      -10.6437153701
 O        -2.8575722719       -4.7601038073      -10.9135043461
 C        -3.0287976978       -2.4875576903      -11.7266915585
 C        -2.3599229251       -1.2512087004      -11.2094326250
 O        -1.6053827280       -1.2193451688      -10.2441929726
 C        -2.6674777343       -0.0599352053      -12.1988577847
 C        -1.5016062565        0.9851145137      -12.2095743847
 C        -1.6603679355        1.9082019447      -13.4169708702
 O        -2.4322061977        1.5162664274      -14.2917753474
 C        -0.9954725223        3.3637281827      -13.5085512021
 C        -2.2187936730        4.3687793284      -13.5466518202
 O        -2.6644795678        4.9079696325      -12.5768766828
 C        -3.0498407134        4.6140131520      -14.9143621864
 C        -3.7741437091        6.0263263868      -14.9203884370
 C        -4.5850563592        6.3197311018      -16.2506757247
 O        -4.6592025774        5.4454404223      -17.1134717229
 C        -5.3125998167        7.8289698135      -16.4710323676
 C        -4.7992070515        8.0852464329      -17.8804664090
 O        -5.3684167201        7.8175840630      -18.9226805209
 C        -3.4214815581        8.8316379688      -18.0095519242
 C        -2.4643655627        8.3656468838      -19.0648964698
 C        -1.6119035438        7.2366039414      -18.4534228014
 O        -1.6978267555        6.8714320076      -17.2949503060
 C        -0.6241093483        6.5655552869      -19.4528052235
 C        -1.5293199444        5.3536040417      -20.0773123471
 O        -2.6753183851        5.2923416562      -19.7513114604
 C        -0.9556856195        4.2941300393      -21.0228407499
 C        -1.7523076055        2.9638089961      -21.0095423815
 C        -2.7435936813        2.6248270614      -22.2334731156
 O        -2.4877379110        3.1530538963      -23.2560386391
 C        -4.0849923144        1.7380649989      -22.1266766672
 C        -5.0471940330        2.8063948165      -21.5252053563
 O        -4.8109406072        3.2772143588      -20.3570430666
 C        -6.1672410019        3.3279941765      -22.4214921673
 C        -6.8466378401        4.6851066786      -22.0725335078
 C        -7.7606285178        4.5450587453      -20.9105844767
 O        -7.5587742253        4.9786333227      -19.7927045482
 C        -9.1474423734        3.7733423743      -21.0630479638
 C        -8.6962022866        2.5202885327      -20.1694940829
 O        -7.8486463769        1.7173343531      -20.5632479793
 C        -9.4097282478        2.3139477222      -18.8205659858
 C        -8.8971217881        3.2984691953      -17.6774354075
 C        -8.8353229088        2.5929649543      -16.3521250375
 O        -7.7800135725        2.7514972049      -15.7638266205
 C        -9.9160234817        1.7687504800      -15.5804220000
 C       -10.5266239130        2.7747007759      -14.5073920407
 O       -11.7139770482        2.8602870204      -14.3910673473
 C        -9.6133626101        3.7078607459      -13.6961057356
 C       -11.0774243190        1.0957125853      -16.4325153400
 C        -9.1546789734        0.6222858300      -14.8060808884
 C       -10.3605168457        4.6761307565      -20.5049899241
 C        -9.3645191385        3.3013250742      -22.5151640529
 C        -4.5373896360        1.1023552227      -23.4615671922
 C        -3.8113447702        0.6005050424      -21.0895129558
 C         0.0393609877        7.3869775354      -20.6390194066
 C         0.5784422384        5.9343821562      -18.6185670418
 C        -6.8440053218        7.6714647527      -16.3258700760
 C        -4.9105199808        8.9064009144      -15.4661218338
 C        -0.1489316115        3.5378443765      -12.1656734278
 C         0.0065687515        3.5375888800      -14.7288387334
 C        -2.1250712388       -3.0669744632      -12.8449272080
 C        -4.5259583327       -2.2941377178      -12.2608700766
 C        -5.5627367837       -6.9892754038       -7.2668627330
 C        -6.0591032875       -4.9822131168       -5.7023728897
 C        -2.6768917003       -6.6570249107        0.2401835461
 C        -1.9545261203       -4.1981647734        0.3241811553
 C         4.1891091928       -8.2336642213       -0.9522771437
 C         3.4341465377      -10.1207748382       -2.2404829426
 C        -1.9395883439      -13.2859088111        0.9219030079
 C        -3.7234814651      -11.3477526865        1.0482252206
 C         1.7034434012       -8.4952012119        5.3661985039
 C        -0.1454552469       -8.7249544072        7.0848847814
 H        -2.1749771358       -6.5733379487        5.9163913081
 H        -1.0522607541       -5.1307958421        5.5828699272
 H        -0.8821287575       -6.3017156225        6.9982249276
 H        -2.4145298554       -9.3531339104        5.5175902442
 H        -1.6845979071      -11.0236852378        5.8300398567
 H        -2.9093769045       -9.9043898811        3.0668363806
 H        -3.8520289412      -10.7840012523        4.2290130090
 H         0.1212228257      -12.2116620212        0.3227206216
 H         0.8873323115      -11.2373335093        1.5079225449
 H         0.1365145926       -9.8508819083       -1.0205155496
 H         1.1327661803      -11.0786639600       -1.3889348335
 H         2.0903633952       -6.1852969354       -3.0474663956
 H         2.5096353179       -5.8930519166       -1.3216545062
 H        -0.1794497006       -6.1172405799       -2.6996317288
 H         0.4595581129       -4.6421933638       -1.9181057656
 H        -3.5232276816       -7.0264305133       -2.3256982510
 H        -2.2103413162       -6.9344106657       -3.3962284202
 H        -3.3456265078       -4.5994616011       -4.3820523382
 H        -4.8913320198       -5.2876363078       -3.6391656217
 H        -5.4937531579       -4.4601583371       -8.6983303531
 H        -4.1217546561       -5.4642103244       -9.1402427628
 H        -2.8176671809       -3.2122942989       -8.5473291886
 H        -4.3237325165       -2.5061591460       -9.1340304604
 H        -3.5453557961        0.3808686594      -11.7744267030
 H        -2.8378989593       -0.4231368751      -13.2208649679
 H        -0.4797145605        0.5289820976      -12.3227802554
 H        -1.4738977783        1.6444813912      -11.2138092848
 H        -3.9061603723        3.9519525883      -14.9051493062
 H        -2.3332044976        4.3327889797      -15.7418892065
 H        -3.1412819930        6.8527316605      -14.7106679326
 H        -4.6546228368        5.9879771902      -14.2170349959
 H        -2.9421764473        8.7735602878      -17.0727529058
 H        -3.5757681142        9.8932401386      -18.0839960765
 H        -1.8839517384        9.2511719264      -19.3575275069
 H        -2.9337539236        7.9401223646      -19.9164396520
 H         0.1524107375        4.0284072053      -20.8073103021
 H        -0.9217907412        4.5842840635      -22.1174559488
 H        -2.2752461873        2.8204191677      -20.0380818178
 H        -0.9942053798        2.1941048833      -21.1223405559
 H        -6.9226030466        2.5659739589      -22.4178717049
 H        -5.7644517855        3.5804603363      -23.4594786335
 H        -7.4918398038        5.0017256020      -22.9191494918
 H        -6.0435144764        5.3228908121      -21.9254886351
 H        -9.2352667099        1.2785671528      -18.5247575551
 H       -10.4966691259        2.4060315364      -18.8433940305
 H        -9.5345419523        4.1468146879      -17.5331131718
 H        -7.8702062294        3.5727382863      -17.9665644173
 H       -10.2101577603        4.3919775536      -13.1871899312
 H        -8.9315342545        4.2321043310      -14.3714220784
 H        -9.0571485425        3.0685865113      -13.0005409646
 H       -11.9004899270        0.8104301073      -15.7897570787
 H       -10.5995700410        0.2416584359      -16.8291664475
 H       -11.4938635279        1.5983095470      -17.3445684255
 H        -8.5991786147        0.0629263835      -15.6180113713
 H        -9.9812889636       -0.0459267235      -14.4613211705
 H        -8.5413528073        1.0660895685      -14.0189028837
 H       -10.0560806638        5.1011140454      -19.5896258365
 H       -11.3053459711        4.0792772194      -20.2238314091
 H       -10.5052414484        5.4540114507      -21.2690955242
 H        -8.6425961136        2.5806111829      -22.9374252013
 H        -9.4084794560        4.0859290646      -23.2560664839
 H       -10.2214032839        2.6398756662      -22.6062885677
 H        -5.5525859386        0.6218020808      -23.3667024310
 H        -3.8817214658        0.2675741281      -23.7909969370
 H        -4.6543621530        1.9558581210      -24.1485788940
 H        -2.8280975482        0.1674092442      -21.3195884757
 H        -4.7236883581       -0.0822371699      -20.8806070510
 H        -3.6841017138        1.0941976328      -20.1144683952
 H         0.6121750942        8.1892848704      -20.2254113393
 H        -0.8766203318        7.9493341616      -21.1639480447
 H         0.5303796039        6.7146090447      -21.4134633331
 H         0.2078280799        5.0876355275      -17.9993541893
 H         0.9556429700        6.6596066736      -17.9525969318
 H         1.3294082945        5.5257327869      -19.2632979365
 H        -7.1310654182        6.7579447840      -16.7670458726
 H        -7.3367200770        8.5765718208      -16.6821967395
 H        -6.9090116114        7.6246210991      -15.2465701696
 H        -3.8399341167        8.8841620512      -15.3236036666
 H        -5.3628578601        8.5876296582      -14.5019888976
 H        -5.2093348642        9.8627924136      -15.8947943272
 H         0.4142463789        2.6598169914      -11.8986437907
 H        -0.6839870207        3.9760517656      -11.3230991784
 H         0.5849565727        4.3375578664      -12.3369092237
 H        -0.3471682513        3.1670277289      -15.7120515225
 H         0.8034423986        2.8343743090      -14.4803528989
 H         0.4247414503        4.5389299008      -14.8231302698
 H        -1.1433495139       -3.3326340428      -12.4511977135
 H        -2.0782907503       -2.3147148137      -13.5723335429
 H        -2.5512552087       -3.9792703714      -13.3243319932
 H        -4.5308878033       -1.7216697396      -13.2621140588
 H        -5.1163383450       -1.8375393398      -11.4680526380
 H        -5.0092673334       -3.2796623211      -12.3805298531
 H        -5.8059905058       -7.8285125986       -6.5851626179
 H        -5.0264609181       -7.4243031755       -8.0873108490
 H        -6.4990438999       -6.6087215415       -7.6532791058
 H        -6.4342928514       -5.4416854882       -4.7819138814
 H        -6.9346567764       -4.7152555058       -6.3148280706
 H        -5.6473991004       -4.0262622692       -5.5051616339
 H        -2.5520071921       -6.7233754001        1.2884684457
 H        -2.5157634547       -7.6652787347       -0.2387591865
 H        -3.7808037748       -6.4001213766        0.1118251458
 H        -2.9694825931       -3.7876159201        0.0892245665
 H        -1.2470041288       -3.3762589266        0.0334242111
 H        -1.6933616618       -4.3532074146        1.3775262688
 H         3.8372247550       -7.2670159870       -0.7544202175
 H         4.8942730799       -8.2678511321       -1.8167205912
 H         4.7795782335       -8.6560672640       -0.0744955603
 H         4.0250999821       -9.7285106906       -3.0138407015
 H         2.6546576900      -10.7744640341       -2.6383305520
 H         4.0621831533      -10.7358270281       -1.5916265900
 H        -2.6188999552      -14.0191987875        1.3424415712
 H        -0.9652357397      -13.6997741091        1.2214208675
 H        -2.0099210578      -13.2580786275       -0.1987455387
 H        -3.8736476924      -11.5353222849        0.0224287383
 H        -3.8553600666      -10.2981497481        1.2482448364
 H        -4.5405322958      -11.8870397368        1.5286841222
 H         2.0431962008       -7.6130701736        5.9272199200
 H         2.2053610216       -8.5080180125        4.3610693495
 H         2.1430295116       -9.2146813725        6.0666640681
 H         0.0345354948       -9.7437998019        7.3426328231
 H        -1.1196870711       -8.4826643724        7.4359104122
 H         0.4673482972       -8.1421258048        7.7975233500
 Na        0.6650063131       -7.8313371973        2.1177316899
 Na       -5.4270551644        5.2560652831      -19.2554291592
