232

 C        -1.1347241220       -6.1450307235        5.8815864922
 C        -0.3488382347       -7.1068391014        4.9649385151
 O        -0.3547648705       -6.7741149349        3.8280726387
 C         0.2693007253       -8.4510279157        5.4884148573
 C        -0.5020408575       -9.4860997075        4.5233108959
 O        -0.1966485112       -9.7592441712        3.4320855765
 C        -1.8200188314      -10.1593252049        5.0715623107
 C        -2.7668705814      -10.5842078322        3.9959437581
 C        -2.0960271692      -11.7564144997        3.1954235166
 O        -1.5497035332      -12.6584264910        3.7633340269
 C        -2.1927413153      -11.8272336226        1.5756034226
 C        -1.1461848410      -10.7950801608        0.9255710303
 O        -1.4109877562       -9.5685649828        0.9984350880
 C         0.1992793131      -11.2458820609        0.5032631889
 C         0.9072721033      -10.5582474332       -0.7118968719
 C         2.0015082752       -9.5142639396       -0.2456296088
 O         2.1647984213       -9.2677805645        0.9333933844
 C         2.8931687721       -8.9230518736       -1.3745577821
 C         1.9250285101       -7.9987240588       -2.2814460517
 O         1.3847100779       -8.4984389793       -3.2755479037
 C         1.8580840633       -6.4507150190       -1.8624513686
 C         0.4579189233       -5.8361677162       -1.8573433988
 C        -0.2849957415       -5.9781935695       -0.4983919163
 O         0.2503003713       -6.4257944739        0.4737916590
 C        -1.8522256754       -5.5835432552       -0.4996168399
 C        -2.3451202103       -5.1621771747       -1.9498163979
 O        -2.0505426815       -4.0816300930       -2.4169627013
 C        -2.8215084780       -6.2278778702       -2.8638931477
 C        -3.7246345019       -5.5649456510       -3.9979873138
 C        -4.1366547371       -6.4906409116       -5.0935066167
 O        -3.9550771679       -7.6747111646       -5.0720374823
 C        -4.9004106872       -5.8646234398       -6.3453122195
 C        -3.9219161150       -4.9056705854       -7.1724102495
 O        -2.9902984372       -4.3254871171       -6.6261994571
 C        -4.4086083033       -4.5482159362       -8.5132805554
 C        -3.5013869833       -3.3031560149       -9.1328675654
 C        -3.2337083563       -3.7272194976      -10.5839687731
 O        -2.9881177502       -4.8450432176      -10.9105107185
 C        -3.0711219053       -2.5353390542      -11.7405505935
 C        -2.4366918529       -1.1801131388      -11.3699760651
 O        -1.6699138844       -1.0798697645      -10.4018564911
 C        -2.7064264314        0.1098456376      -12.1692879174
 C        -1.5913808230        1.1373925445      -12.1931158559
 C        -1.7906708104        2.0071876369      -13.4714858826
 O        -2.4440456401        1.6365268104      -14.4121339359
 C        -1.0297645630        3.4093234591      -13.5277611850
 C        -2.2531445744        4.5576391955      -13.6968367211
 O        -2.5705694137        5.0729325871      -12.6184415602
 C        -3.0464413476        4.8171645703      -14.9650845465
 C        -3.9077070179        6.0387536606      -14.8337192670
 C        -4.7229004078        6.3460034974      -16.0967136982
 O        -4.8415502617        5.4807655064      -16.9417712757
 C        -5.2703369038        7.7630177825      -16.3115518200
 C        -4.7169556809        8.1758146295      -17.8752261815
 O        -5.3186855455        7.8200214455      -18.8896690002
 C        -3.4271579929        9.0169045197      -17.9329193375
 C        -2.4081415066        8.4192850830      -18.8695749318
 C        -1.4491048157        7.2423736172      -18.4717649163
 O        -1.5434725404        6.8527870452      -17.3040309473
 C        -0.6880213697        6.4908412723      -19.5368119659
 C        -1.5468853526        5.2587117262      -20.0897134028
 O        -2.7535269809        5.2841523047      -19.7714030233
 C        -0.9938100486        4.1322261698      -21.0079031526
 C        -1.7878510354        2.7946963273      -20.9224164476
 C        -2.6488170451        2.5028341641      -22.2841718296
 O        -2.4926284485        2.9653990837      -23.3847778757
 C        -4.0881093831        1.7487533231      -22.0744488440
 C        -4.9807583617        2.8411380263      -21.5332330881
 O        -4.8124069112        3.1888928603      -20.3789332408
 C        -6.0422035924        3.3684192466      -22.4487016414
 C        -6.7327864061        4.7354538540      -22.0528797128
 C        -7.7003386973        4.5808755446      -20.9177403388
 O        -7.4662268662        5.0283313396      -19.8192201156
 C        -8.9964431497        3.7690654563      -21.0279308089
 C        -8.7570643925        2.4600688086      -20.0722939164
 O        -7.8843280885        1.7113673811      -20.4098977277
 C        -9.5656488685        2.3434777720      -18.8372613222
 C        -8.9777220578        3.2868486768      -17.6891278201
 C        -8.7446926985        2.4963113764      -16.2809156108
 O        -7.6184814002        2.6310733530      -15.7606589418
 C        -9.9002796987        1.6927675834      -15.5844808166
 C       -10.6458759540        2.6491105968      -14.5356199848
 O       -11.8485652416        2.7248565896      -14.3884553579
 C        -9.6817985779        3.4123587648      -13.5800039776
 C       -11.0896925587        1.2088216604      -16.4778560452
 C        -9.2185303847        0.6142579766      -14.7552129454
 C       -10.0617306057        4.6774898338      -20.4820755374
 C        -9.3907702241        3.2981217872      -22.4558358034
 C        -4.6511139450        1.0905214219      -23.4248542134
 C        -3.8669832391        0.6526111822      -20.9677073376
 C        -0.0669706235        7.4173811536      -20.6648989569
 C         0.5306685288        5.8378536428      -18.7577763361
 C        -6.9094613218        7.6583134204      -16.3514015921
 C        -4.8696636350        8.8838452287      -15.3873787539
 C        -0.3023500644        3.7199474835      -12.2671347406
 C        -0.1544917736        3.5838854449      -14.7583645066
 C        -2.2860063812       -3.1231384087      -13.0192912251
 C        -4.4900332111       -2.2361846076      -12.3225172345
 C        -5.3034486874       -6.9554790816       -7.2755109599
 C        -6.1125684411       -5.0889696979       -5.8142437270
 C        -2.6622322864       -6.6766558272        0.1034554555
 C        -1.9353614755       -4.2830431222        0.4680475811
 C         4.1776315723       -8.1727963171       -0.8225562617
 C         3.3402747186      -10.1590762641       -2.2819950442
 C        -2.0331248181      -13.2389015351        1.1620461194
 C        -3.5134952654      -11.3583882151        1.0148517059
 C         1.7714704800       -8.5493959689        5.3317487543
 C        -0.0617436024       -8.7110721006        6.9596675882
 H        -2.1395552682       -6.4594585744        5.9652064211
 H        -0.9537227764       -5.2259051804        5.4279139234
 H        -0.7905765047       -6.1016532026        6.9624073502
 H        -2.2614824163       -9.6215186529        5.9631496473
 H        -1.3702741789      -11.1083364459        5.4450800032
 H        -3.1727231373       -9.8470634767        3.3853234386
 H        -3.6235306640      -11.1202895043        4.5074675791
 H         0.1983990826      -12.3977842384        0.4436825706
 H         0.7881465612      -11.0268669396        1.4660020184
 H         0.1552375524      -10.2875805454       -1.5039891406
 H         1.4474133674      -11.3336045651       -1.2914338810
 H         2.4886758274       -5.8628621064       -2.5710622294
 H         2.1268042497       -6.3158965038       -0.7900541020
 H        -0.1478823678       -6.2839601622       -2.6535821420
 H         0.5223117662       -4.7681064940       -2.0019719319
 H        -3.3129079333       -7.0881044333       -2.4926029949
 H        -1.8500677485       -6.6989331299       -3.3352003352
 H        -3.2372368695       -4.7235442027       -4.5644835586
 H        -4.6858569485       -5.2210742542       -3.5795564913
 H        -5.4587289845       -4.2426081925       -8.5201361196
 H        -4.2308518213       -5.3810924012       -9.2292754477
 H        -2.6303789333       -3.2430309627       -8.5320385741
 H        -4.0733837254       -2.4261921395       -9.0944521289
 H        -3.6012612718        0.6088749640      -11.7797792573
 H        -2.7933289090       -0.1535346936      -13.1768819820
 H        -0.5604978907        0.6797543422      -12.2354330916
 H        -1.5960546744        1.8441293613      -11.3659770183
 H        -3.6797106884        3.9536967770      -15.3155595717
 H        -2.1618876259        4.9996014579      -15.6931426819
 H        -3.2377449554        6.8624959719      -14.7145935462
 H        -4.6917412379        6.0788233559      -14.0255382201
 H        -3.1060913928        9.1268164916      -16.9145682245
 H        -3.5785925262       10.0360367741      -18.2754210670
 H        -1.8662352094        9.3499717285      -19.1560082572
 H        -2.9402085480        8.0708290634      -19.6992897630
 H         0.1053484381        3.8344308321      -20.9877742873
 H        -1.1030158735        4.5644481319      -22.0795433004
 H        -2.5162971485        2.9174449579      -20.1249701747
 H        -1.1886314224        1.9210187024      -20.7261682598
 H        -6.8443108826        2.5979182161      -22.4329627376
 H        -5.6340843033        3.5910192966      -23.4804300409
 H        -7.2883043332        5.1179634462      -22.8934624498
 H        -5.8685903651        5.3735938119      -21.7767189183
 H        -9.6335882287        1.2463839829      -18.5127437169
 H       -10.5458759395        2.6155219799      -18.9214667023
 H        -9.7572553217        4.0830626141      -17.4961175693
 H        -8.0491815800        3.6559210581      -18.0430840424
 H       -10.0564931408        4.2919598884      -13.1524474092
 H        -8.8699328074        3.7129850593      -14.2140863320
 H        -9.2982734047        2.6272243732      -12.8639272323
 H       -11.7925784412        0.7723973944      -15.7731451286
 H       -10.8252362690        0.4714623465      -17.2804432109
 H       -11.5490644797        1.9859169036      -17.0259684146
 H        -8.7039295537        0.0001893386      -15.5267103056
 H       -10.0028430866        0.0360435977      -14.3965332849
 H        -8.5620827354        1.0425285347      -14.0419271549
 H        -9.8857173837        5.0000732686      -19.4855982894
 H       -11.0070677286        4.1536295774      -20.4249099226
 H       -10.1105939566        5.4090967285      -21.1806806416
 H        -8.9415004711        2.4032688174      -22.7073694296
 H        -9.1088869540        3.9983473449      -23.2549657043
 H       -10.4290233078        3.0167467927      -22.6293796360
 H        -5.6136345458        0.5348431018      -23.3021413087
 H        -3.9724523426        0.3319070696      -23.8281909048
 H        -4.8431123821        1.9526807286      -24.0751269389
 H        -3.1044538026       -0.0961101543      -21.2202279127
 H        -4.8740422220        0.3470546828      -20.6860553738
 H        -3.5257461898        1.1603579108      -20.0093682925
 H         0.7427846031        7.9510380177      -20.2982384682
 H        -0.8016905351        8.1300216713      -20.8560054701
 H         0.0886270171        6.8873376969      -21.5792000846
 H         0.2814354929        5.5908296180      -17.7550270100
 H         1.2978511939        6.6202802026      -18.6668909777
 H         0.9187780289        4.9804474885      -19.2171745409
 H        -7.1526075189        6.8561945976      -16.9676199689
 H        -7.2864671073        8.6333379114      -16.7558715490
 H        -7.1528748226        7.4744379142      -15.3230472758
 H        -3.8727037649        8.7353762560      -15.0328287128
 H        -5.5886300190        8.8144888984      -14.4794552382
 H        -4.9031943654        9.8314636043      -16.0388447533
 H         0.3732368047        2.9548586086      -11.9752471239
 H        -0.8756224329        4.0541931149      -11.4400786247
 H         0.3161648540        4.5934891215      -12.4728735918
 H        -0.7493197743        3.3122506447      -15.6065307308
 H         0.6284538992        2.8149386099      -14.7648969263
 H         0.3115729455        4.5876387890      -14.9020270308
 H        -1.3681979381       -3.4077566458      -12.7472601197
 H        -2.2861934721       -2.2359871411      -13.6638866193
 H        -2.7377143818       -3.8768968815      -13.5609080186
 H        -4.4125668701       -1.5042597014      -13.1445378728
 H        -5.1407485323       -1.9009965887      -11.5091912566
 H        -4.9595057516       -3.1905586996      -12.7081595824
 H        -5.7239972360       -7.7891206551       -6.7287901530
 H        -4.4670983601       -7.3404591124       -7.8707236686
 H        -6.0103417620       -6.6036610678       -7.9796393386
 H        -6.7106385406       -5.6059338362       -5.0848156216
 H        -6.6975411833       -4.6833971091       -6.5852782465
 H        -5.7170536102       -4.1620850205       -5.4749971582
 H        -2.5904357970       -6.6907840508        1.2299915854
 H        -2.4103794309       -7.6428529371       -0.2440784903
 H        -3.7164675489       -6.4720939343       -0.1342161293
 H        -2.9707554957       -3.8332713042        0.3165655050
 H        -1.2018593049       -3.4529226119        0.1745054409
 H        -1.6488815682       -4.4932448817        1.4826424495
 H         3.8356735482       -7.2564984174       -0.2142165638
 H         4.9261459808       -7.9617784576       -1.6451230054
 H         4.6705019215       -8.8489995623       -0.1833537163
 H         3.9421448727       -9.8774087922       -3.1618823870
 H         2.5204174926      -10.6855094143       -2.6780761278
 H         3.8547761403      -10.8294969052       -1.6159955876
 H        -2.9903218951      -13.7305546813        1.4791828289
 H        -1.3188479287      -13.7614741515        1.7635081153
 H        -1.8423286258      -13.3932823915        0.1431865793
 H        -3.4377307463      -11.6237196304       -0.0092720476
 H        -3.6968555229      -10.2968385034        1.1025541976
 H        -4.3776084982      -11.9112818039        1.3326607530
 H         2.1899512134       -7.5614948798        5.4765558890
 H         2.1449636545       -8.9207049419        4.4094253747
 H         2.1920644321       -9.0527614296        6.2105318505
 H        -0.1543663825       -9.8316623805        7.0936354092
 H        -0.9359854741       -8.2923225155        7.4087201820
 H         0.6828888131       -8.3824962435        7.6915721618
 Na        0.6121739853       -7.9132033920        2.1903216632
 Na       -5.3073777083        5.3071128156      -19.2397496129
