232

 C        -0.9260416361       -6.1382871906        6.0268921896
 C        -0.3108440472       -7.0061211825        4.9978742237
 O        -0.1883779420       -6.5815977341        3.8177192347
 C         0.2028166018       -8.3874539808        5.4312516443
 C        -0.5474746886       -9.4611664002        4.7308281112
 O        -0.2213157259       -9.7460270725        3.5367083930
 C        -1.7784925435      -10.2083191846        5.1814631728
 C        -2.7426667247      -10.5309135720        4.0399688944
 C        -2.0419378342      -11.6943942245        3.2787801230
 O        -1.1984108233      -12.4160484054        3.7900747931
 C        -2.1683896920      -11.7842777807        1.6899931463
 C        -1.0476797661      -10.8599889707        1.0000204258
 O        -1.1457190374       -9.6825405578        0.8155695131
 C         0.2074198873      -11.5213372964        0.4738989716
 C         0.8106424575      -10.7569215366       -0.6852531834
 C         1.8590817989       -9.7374905549       -0.3826182438
 O         1.9087353167       -9.1865115809        0.7299676202
 C         2.8472835407       -9.1807863824       -1.4411148537
 C         1.9061015805       -8.0325151713       -2.1745504746
 O         1.4260314160       -8.2393419272       -3.2508875578
 C         1.8620731328       -6.6185111382       -1.5275947243
 C         0.5111150544       -6.0405111775       -1.8084659788
 C        -0.3050579031       -6.1015389827       -0.5394201733
 O         0.2093579989       -6.3812145586        0.5501974381
 C        -1.7148399494       -5.5839882421       -0.5869593466
 C        -2.1648977788       -5.1358595891       -1.9431881741
 O        -1.8105929117       -4.0572514695       -2.3644918937
 C        -2.8361069011       -6.1524825512       -2.9390790671
 C        -3.5584850679       -5.4973673972       -4.0304684540
 C        -4.0891866651       -6.4494083015       -5.1784655965
 O        -3.9477864613       -7.6828612785       -4.9431022138
 C        -4.7534547200       -5.8939982198       -6.4425814970
 C        -3.9176509817       -4.6994157401       -7.0437118357
 O        -3.0543899782       -4.1228237255       -6.4925781908
 C        -4.2318118054       -4.2701609969       -8.4955372846
 C        -3.4204149313       -3.2435549006       -9.2312580446
 C        -3.2426771261       -3.5849403152      -10.7715519335
 O        -3.1909659900       -4.7517841140      -11.2170879017
 C        -3.1871211611       -2.5019203823      -11.8653918863
 C        -2.5450821981       -1.1804782095      -11.4562382846
 O        -1.7330443513       -1.0861265390      -10.5708513456
 C        -2.9375944213        0.0885074011      -12.3615250299
 C        -1.9389943706        1.3415440928      -12.2662849530
 C        -2.0027641855        2.2613694567      -13.5572246660
 O        -2.4670576593        1.8290536376      -14.6275478575
 C        -1.2024212420        3.6970300777      -13.5839324128
 C        -2.2196756265        4.8357344421      -13.6135688432
 O        -2.6037513671        5.4915773003      -12.6863933047
 C        -2.8693113861        5.1372276365      -14.9862510803
 C        -4.1216248648        6.0579228861      -14.7095628530
 C        -4.8390212990        6.4027403421      -16.0209636529
 O        -5.1778716830        5.4196609251      -16.7117835473
 C        -5.2646375156        7.8241662544      -16.3389108369
 C        -4.5680481845        8.1434846462      -17.6831457455
 O        -5.0129819875        7.6618380173      -18.7088592993
 C        -3.2134226472        9.0125931293      -17.7918773210
 C        -2.2448720501        8.3978053642      -18.9098370633
 C        -1.5120571259        7.2652640182      -18.4237288307
 O        -1.3971018360        6.9501364076      -17.2641185576
 C        -0.7859120010        6.3383112152      -19.5749489588
 C        -1.7423379202        5.2241967422      -20.0946242649
 O        -2.9229564929        5.2329486984      -19.9287067941
 C        -1.0953856968        4.1940055955      -21.0693019913
 C        -1.8883296531        2.8705960560      -20.8477364740
 C        -2.6489590758        2.4034266783      -22.2003740160
 O        -2.3223874154        2.6211104015      -23.3273289784
 C        -4.1335670724        1.6171200653      -21.9569558521
 C        -4.9851578040        2.8563953493      -21.5066011556
 O        -4.9626799615        3.3374924393      -20.3429339554
 C        -5.7982845186        3.5371784180      -22.5526012751
 C        -6.5312723218        4.7905651200      -22.0428717164
 C        -7.5450847417        4.6232525672      -20.8615371800
 O        -7.2205752877        5.1791156909      -19.7975457225
 C        -8.8619562563        3.8429706460      -20.9636783443
 C        -8.7103382768        2.5254434940      -19.9966097084
 O        -7.9492230344        1.6384442667      -20.3518691296
 C        -9.6590696556        2.3332202592      -18.7915981801
 C        -9.2195136327        3.2015962012      -17.5491967705
 C        -8.8118466600        2.4020583701      -16.3327385292
 O        -7.6903585816        2.3413263573      -15.9142418201
 C       -10.0006829868        1.6095896777      -15.5174144760
 C       -10.6312105245        2.4709117519      -14.3401420208
 O       -11.8142214628        2.6492053380      -14.4309400795
 C        -9.8884191095        3.0627370016      -13.1323737629
 C       -11.1121543875        1.1013086002      -16.4718852048
 C        -9.3867073781        0.2767369238      -14.7487551900
 C        -9.9888760756        4.8655947891      -20.4200817692
 C        -9.2073927254        3.3167415601      -22.3194965513
 C        -4.5110708119        0.8892157999      -23.3292927137
 C        -4.0273780351        0.5984822391      -20.8724025829
 C        -0.4086987029        7.1732745747      -20.8016578017
 C         0.4685791461        5.6455495396      -19.0400079067
 C        -6.7589739739        7.7315670948      -16.6226223500
 C        -5.0030384757        8.8451783071      -15.1449399600
 C        -0.2753177537        4.0489378999      -12.3725904669
 C        -0.4365802989        3.5733034190      -14.9512310560
 C        -2.4223611584       -3.0976439273      -13.0995101433
 C        -4.7257925807       -2.3399060910      -12.1525521303
 C        -5.0090150998       -7.1140151202       -7.3329373403
 C        -6.2009487336       -5.2851478348       -6.0618650428
 C        -2.5967947629       -6.7414871457       -0.0389620245
 C        -1.8724100171       -4.4147386820        0.4026668414
 C         3.9521997713       -8.3785048003       -0.6555003374
 C         3.4656617241      -10.1062481625       -2.4586521086
 C        -1.9602390773      -13.2782188310        1.3320791319
 C        -3.5373385886      -11.2201117244        1.2162860321
 C         1.7041560169       -8.4336612737        4.9379551332
 C         0.1518510088       -8.6174644129        6.9236833970
 H        -1.7129486562       -6.7372827825        6.4913247789
 H        -1.1937056813       -5.1839782520        5.5830569358
 H        -0.2205098794       -5.8852769410        6.8225861421
 H        -2.1460000983       -9.6127728142        5.9585238328
 H        -1.4235562772      -11.1359510762        5.5946509509
 H        -2.7722012598       -9.6392594559        3.3047646914
 H        -3.7445565330      -10.8016951766        4.3104080251
 H         0.0873913273      -12.5702163297        0.2704524751
 H         0.9736196962      -11.5245773302        1.2598842750
 H         0.0358441004      -10.2238797814       -1.2388007530
 H         1.1542217463      -11.4258160980       -1.4800769066
 H         2.6220676498       -6.0439924190       -2.0853506702
 H         2.0370338825       -6.5559855380       -0.4410076568
 H         0.0152334875       -6.7758050345       -2.4646142729
 H         0.4559566673       -5.0255722174       -2.2612474958
 H        -3.5945468042       -6.8645937862       -2.4945716619
 H        -2.0792824840       -6.7685758525       -3.3055080152
 H        -2.9401764308       -4.6756571520       -4.4192714671
 H        -4.4494487860       -4.9750964599       -3.5935636958
 H        -5.2329589527       -3.7841519050       -8.5461194954
 H        -4.1665023698       -5.1132552562       -9.1841046654
 H        -2.3846060797       -3.2554496644       -8.7612499070
 H        -3.9110333927       -2.2318391697       -9.0406755666
 H        -3.8517529155        0.4723012198      -11.9149985098
 H        -3.0699650236       -0.2638057953      -13.4444128394
 H        -0.9879918579        0.9397111536      -12.2329778111
 H        -2.0990555231        1.9488250068      -11.3549737109
 H        -3.2843764965        4.1868092044      -15.2786278825
 H        -2.2069757751        5.5109817256      -15.7246563972
 H        -3.7818844544        6.9844016590      -14.1846602970
 H        -4.9190444092        5.6144913334      -14.1374592131
 H        -2.7922848001        9.2352494518      -16.7709138795
 H        -3.6498686075        9.9875630519      -18.1606419505
 H        -1.5109798238        9.1287134038      -19.2192518969
 H        -2.8556383280        8.0752209203      -19.8263053493
 H        -0.0665253183        3.9598407645      -21.0480303422
 H        -1.1419118370        4.6210979614      -22.0309435717
 H        -2.6198343150        3.0787920102      -20.0394306413
 H        -1.3693059492        1.9303528162      -20.5944559959
 H        -6.5109259810        2.9223799183      -23.0555255404
 H        -5.0830602329        3.9148182053      -23.2462291310
 H        -7.0954095252        5.2117040216      -22.9258538956
 H        -5.7225833729        5.4514635342      -21.7291665518
 H        -9.5978958338        1.3203647087      -18.5357475631
 H       -10.7805768809        2.5192208405      -18.9574041767
 H        -9.9820054433        3.8608926884      -17.2069791866
 H        -8.2808699842        3.6986691634      -17.9170904059
 H       -10.3632911725        4.0408947591      -12.9507323253
 H        -8.8115470098        3.3214317624      -13.3457747388
 H       -10.0076399043        2.3262612072      -12.3610543650
 H       -11.9563971924        0.7054863123      -15.8913634377
 H       -10.7910514551        0.3338758689      -17.1249415356
 H       -11.4163315120        1.8857197415      -17.2209634658
 H        -9.2619752014       -0.5685328333      -15.3828395480
 H       -10.1396943449        0.0038733480      -13.9949828477
 H        -8.4180240580        0.5736635750      -14.3570497649
 H        -9.8020412151        5.0893951825      -19.4013593765
 H       -11.0539501651        4.4561399480      -20.4067048251
 H       -10.0383273917        5.7220162099      -21.1442985024
 H        -8.8985710773        2.2578109616      -22.6038011534
 H        -8.8783875569        4.0000461619      -23.0961395080
 H       -10.2640802390        3.3645116651      -22.5810686787
 H        -5.5225922935        0.5975351244      -23.3326536565
 H        -3.9978049311       -0.0586361101      -23.3651802692
 H        -4.2952543690        1.4708404131      -24.1845584372
 H        -3.3724514572       -0.1964406148      -21.1520747641
 H        -4.9986847592        0.2377393856      -20.5428432146
 H        -3.5828082502        1.0776882467      -20.0794396260
 H         0.2897536911        7.9084166691      -20.4806655639
 H        -1.3145881927        7.6525846542      -21.3776797460
 H         0.0802171102        6.4733004365      -21.5030096130
 H         0.7402983955        6.0840527956      -18.0451841156
 H         1.3491228822        5.7764920972      -19.6341758698
 H         0.2477080951        4.5565653737      -18.8948603876
 H        -6.9011719272        7.3127010010      -17.6652583763
 H        -7.0217373909        8.7605526103      -16.7370675918
 H        -7.1676561957        7.0571974914      -15.8401568460
 H        -3.9216199216        9.0520754362      -15.0589180972
 H        -5.4109601465        8.4517275034      -14.2619127982
 H        -5.4871950946        9.7323168459      -15.4174229693
 H         0.6436529085        3.4447352258      -12.4354647211
 H        -0.7076471705        3.7478088017      -11.3967184694
 H         0.0554724946        5.0746976021      -12.2678716678
 H        -0.9648788902        3.2594041598      -15.8657153167
 H         0.4045963052        2.9079671071      -14.8222904252
 H        -0.0014507659        4.5352906090      -15.0908541368
 H        -1.3823996111       -3.2815342865      -12.6719889689
 H        -2.5178882250       -2.5627542778      -14.0152452747
 H        -2.9148190036       -4.1244265664      -13.3119830533
 H        -4.8694509131       -1.6428822758      -12.9724272689
 H        -5.1503477246       -1.8754566847      -11.2694975912
 H        -5.1955332134       -3.2369083775      -12.3985576465
 H        -5.8621557757       -7.7203105236       -6.9459035524
 H        -4.0785054113       -7.6600693919       -7.4125823130
 H        -5.2047650598       -6.8493411769       -8.3969404404
 H        -6.7869763073       -6.1981191958       -5.9579333328
 H        -6.5090765678       -4.5687122176       -6.8662805203
 H        -6.2624078833       -4.6095850841       -5.2147008889
 H        -2.1859161796       -7.0716701704        0.8571312583
 H        -2.5074283570       -7.6430189973       -0.6891468785
 H        -3.6506778742       -6.4679243109        0.0176909405
 H        -2.9147289498       -4.4058288037        0.6642282928
 H        -1.4909059061       -3.4947398660        0.0760075223
 H        -1.2839361844       -4.6411656718        1.3218584515
 H         3.6359534307       -8.1865593019        0.3029269447
 H         4.2369329796       -7.4783359671       -1.1473530096
 H         4.8897860883       -9.0205509918       -0.5833910311
 H         4.3420413934       -9.6682390840       -2.8842014992
 H         2.8224991765      -10.1502900202       -3.3911539556
 H         3.6211085554      -11.1198496022       -2.0333193443
 H        -2.8143576461      -13.8281553602        1.5857710519
 H        -1.0734077653      -13.7432983351        1.7684738832
 H        -1.9008441787      -13.3889369751        0.2183107484
 H        -3.7422016298      -11.3619525965        0.1343463460
 H        -3.7385496051      -10.1758612937        1.4864315868
 H        -4.2701237987      -11.8894293538        1.7131556970
 H         2.2490556934       -7.4997844118        4.8952830901
 H         1.7363520875       -8.7789097167        3.8857779510
 H         2.2027635111       -9.1732189457        5.5356076428
 H         0.5124188162       -9.5327984123        7.2974280576
 H        -0.8986574131       -8.6590310335        7.3069560031
 H         0.5522412103       -7.7501574484        7.4842224059
 Na        0.4008780331       -8.2539874377        1.9207067314
 Na       -4.9284969112        5.4965819154      -19.0884331335
