232

 C        -0.8654034153       -6.0173141543        6.0648050281
 C        -0.2695738558       -6.9600854686        4.9586577808
 O        -0.1111061411       -6.6478226155        3.8198272606
 C         0.2748672537       -8.3732268929        5.4368624910
 C        -0.6182725339       -9.4514492123        4.6643486425
 O        -0.2520036830       -9.8368258836        3.5850823531
 C        -1.9447800981      -10.1650853723        5.2379108587
 C        -2.7172399399      -10.6191103565        4.0031996227
 C        -1.8121333794      -11.5918092072        3.2381858319
 O        -1.0965885360      -12.3408570126        3.8636163748
 C        -2.1434527229      -11.7723691531        1.6827706415
 C        -1.0316537488      -10.9432825487        0.9884782157
 O        -1.1655016306       -9.7791297691        0.8427348173
 C         0.3117623769      -11.6652712321        0.4741200545
 C         0.8166288436      -10.9517369699       -0.8173221974
 C         1.8480230326       -9.8167113502       -0.4291552005
 O         1.7798241623       -9.2806948990        0.6636001260
 C         2.9417787019       -9.1949390844       -1.4971381752
 C         2.1361807521       -7.9873392361       -2.1426944086
 O         1.4351654442       -8.2553989177       -3.1199661043
 C         2.0186913820       -6.6527713398       -1.5367153430
 C         0.5665397611       -6.0067792401       -1.7536471580
 C        -0.2784063148       -6.0662213448       -0.4449239728
 O         0.2211762049       -6.4458715747        0.5711692755
 C        -1.8197222577       -5.6320828516       -0.4868349599
 C        -2.1486645527       -5.1506702532       -2.0130257942
 O        -1.7197868628       -4.0738229211       -2.3229027709
 C        -2.9161667740       -6.0408092137       -2.9312723249
 C        -3.6030908667       -5.3227983194       -4.1152759404
 C        -4.1008117673       -6.3517744755       -5.1708942677
 O        -3.9671140506       -7.5783713052       -4.9753994052
 C        -4.6864886173       -5.9267860855       -6.5102732475
 C        -3.8340298441       -4.6486678957       -7.1560050014
 O        -3.0891025792       -4.0063707783       -6.4847470574
 C        -4.2645240920       -4.3224092901       -8.6216814150
 C        -3.3026430162       -3.2501855684       -9.2977924373
 C        -3.1859543589       -3.5708978034      -10.7685266172
 O        -3.3006974047       -4.7212479874      -11.0908037787
 C        -3.2762714481       -2.4127859816      -11.8937360545
 C        -2.6102203605       -1.0521422933      -11.5998742020
 O        -1.7670740174       -1.0739881815      -10.6903461286
 C        -2.9869020150        0.1138766226      -12.5064105290
 C        -2.1052997370        1.4125529473      -12.2474146208
 C        -2.0237002948        2.2885278139      -13.5296153146
 O        -2.5688818174        1.9560808646      -14.5545243734
 C        -1.2209308740        3.7108238516      -13.5624633744
 C        -2.2478838185        4.8960658123      -13.6068441406
 O        -2.4966995955        5.5470196501      -12.5933883080
 C        -2.9692962182        5.2322826983      -15.0047178428
 C        -4.2157981788        6.0202088894      -14.6563853823
 C        -4.9878432211        6.3097979027      -15.9582313371
 O        -5.2463742190        5.4517027008      -16.7921106265
 C        -5.2868529224        7.8542177970      -16.3990425841
 C        -4.3697231943        8.1408383481      -17.6784209966
 O        -4.7649462669        7.6884726584      -18.7326301940
 C        -3.0884779625        8.9569971120      -17.7410274982
 C        -2.3142359341        8.4540160726      -18.9213537225
 C        -1.4414135408        7.2355852341      -18.4561718808
 O        -1.3372761489        6.9033318754      -17.2933719242
 C        -0.7374567079        6.3069492834      -19.5595289963
 C        -1.7854851594        5.2379308448      -20.2123446381
 O        -2.9988173791        5.2695107813      -19.9948345949
 C        -1.2832806957        4.1696508677      -21.0982475394
 C        -1.8986610948        2.7819089580      -20.8335337497
 C        -2.6764541641        2.2555037825      -22.0663282047
 O        -2.2619975986        2.4904741179      -23.1718267297
 C        -4.0901425017        1.5695268215      -21.8729021570
 C        -5.0121520728        2.8498012688      -21.5955711974
 O        -4.9293739715        3.1642045460      -20.3843251780
 C        -5.8410246319        3.6680868300      -22.6484512881
 C        -6.5843498439        4.8922178983      -22.0951916573
 C        -7.4141171780        4.6428119041      -20.7843093639
 O        -7.1167291341        5.1671536284      -19.7476729805
 C        -8.7713101918        3.8998438868      -20.8931299486
 C        -8.6873987648        2.6058658753      -20.0204105538
 O        -7.9674818869        1.7508464516      -20.4361707756
 C        -9.5463606735        2.3771627697      -18.8096724367
 C        -9.3409210276        3.2315452449      -17.4573616604
 C        -8.9427455197        2.2448204673      -16.2632299735
 O        -7.7566996587        2.2116489494      -15.9492931709
 C       -10.0403020335        1.4344316374      -15.4465153678
 C       -10.7255077102        2.4388116426      -14.2715785223
 O       -11.8907787539        2.7664005739      -14.4028557648
 C        -9.9060191511        2.8100144683      -13.1102097696
 C       -11.2185042794        0.9177191388      -16.2708911078
 C        -9.3723167224        0.1886938062      -14.7946130976
 C        -9.8676907876        4.8587896039      -20.4017153864
 C        -9.0418397836        3.4204914102      -22.2944678345
 C        -4.4822176995        0.9760368030      -23.2156091114
 C        -4.0478006154        0.6007167864      -20.7060377799
 C        -0.5094309886        7.1499637879      -20.9419438986
 C         0.4422674545        5.6452178549      -18.9455085721
 C        -6.8659944276        7.9058646261      -16.6977453992
 C        -5.0597321525        8.8202078387      -15.2050728116
 C        -0.2304709548        3.8803222126      -12.4719028778
 C        -0.4305532151        3.7321661741      -14.8835842143
 C        -2.5394549052       -2.9189926140      -13.1535592366
 C        -4.8420178374       -2.3081174003      -12.1656929695
 C        -4.8223627028       -7.0997845937       -7.4358028124
 C        -6.1344893652       -5.4295682379       -6.1480769959
 C        -2.6649231381       -6.9207584997        0.0071464048
 C        -1.9435421194       -4.3585579311        0.4058180439
 C         4.1519857454       -8.5502362950       -0.7046892231
 C         3.4328432309      -10.1763941341       -2.5173833559
 C        -2.0662047274      -13.1992491488        1.2467584113
 C        -3.5420598221      -11.2491284059        1.3744855041
 C         1.7495602219       -8.3389284079        4.9123903060
 C         0.4367703167       -8.4819536505        7.0378303279
 H        -1.4347450734       -6.6512182135        6.7487215931
 H        -1.3651486200       -5.1817154260        5.6278406729
 H        -0.0193354774       -5.5057027792        6.7164698012
 H        -2.4763680442       -9.4207193922        5.9046544540
 H        -1.6533510400      -11.0457196901        5.8482838013
 H        -3.0070594301       -9.7557344246        3.4236584877
 H        -3.6222408264      -11.2217400829        4.2527768804
 H         0.1226976736      -12.6937229514        0.2914304777
 H         1.1005355074      -11.7211171174        1.0991442642
 H         0.0204297508      -10.3483821836       -1.2435864620
 H         1.0399211716      -11.5736976127       -1.6239738640
 H         2.7303159750       -6.0254727700       -2.0712910972
 H         2.3059284905       -6.6445418206       -0.4901026192
 H         0.0394705774       -6.5787561620       -2.5398891916
 H         0.5957016358       -4.9497600313       -2.0192562548
 H        -3.5854795186       -6.5807382214       -2.3487960286
 H        -2.2108177208       -6.7914051781       -3.3308984152
 H        -2.8696344147       -4.6045581319       -4.5174552830
 H        -4.4637334965       -4.6568945297       -3.8951691436
 H        -5.2433274681       -3.8637265397       -8.5797431354
 H        -4.1626715822       -5.1606536508       -9.2942693434
 H        -2.3402994146       -3.3380865958       -8.7374344518
 H        -3.7062342343       -2.2260679889       -9.1429778162
 H        -4.0368747676        0.3778424008      -12.3061188904
 H        -2.8399353320       -0.3421720694      -13.5178429471
 H        -1.1142467088        0.9847406700      -11.9830137159
 H        -2.4679776108        2.0631990754      -11.3633448157
 H        -3.1555025644        4.3841056219      -15.5824530646
 H        -2.3413843704        6.0095177835      -15.4622504364
 H        -3.8480691087        6.9204550963      -14.2961211808
 H        -4.9676007883        5.6371750759      -13.8911855882
 H        -2.5929492091        8.6430362458      -16.8287921687
 H        -3.3373485454       10.0194679612      -17.6003172187
 H        -1.6275887706        9.2942604128      -19.2375988787
 H        -2.9661071128        8.1761806247      -19.7290756061
 H        -0.2059696257        4.0219698205      -21.1658324391
 H        -1.3845216923        4.4545733350      -22.1259188880
 H        -2.4985541924        2.8144540966      -19.8877039577
 H        -1.2076891610        1.9254475775      -20.7488911724
 H        -6.5531410655        3.0864000633      -23.1543845267
 H        -5.1139296994        4.0564942235      -23.4119463154
 H        -7.2994108891        5.2203264093      -22.8765567576
 H        -5.8570547774        5.6260751181      -21.9073872400
 H        -9.5237999638        1.2651498197      -18.5599218772
 H       -10.5672020494        2.5672388969      -19.0619496492
 H       -10.2255824459        3.7793585051      -17.2018294997
 H        -8.4531380063        3.8438071408      -17.5977641449
 H       -10.1339020172        3.7791921069      -12.8873707969
 H        -8.8398474306        2.8433343426      -13.3117990328
 H       -10.1949090211        2.0132556597      -12.3531218285
 H       -12.0952585358        0.7213848873      -15.6667598257
 H       -11.1049993483        0.0644607836      -16.9360410136
 H       -11.3771740703        1.7224554872      -16.9844095656
 H        -9.3177680305       -0.7173360997      -15.5424400674
 H       -10.0779633722       -0.1161796725      -14.0006088269
 H        -8.3414201955        0.4270820296      -14.5020761033
 H        -9.7018123876        5.2643245646      -19.3742772274
 H       -10.9234618733        4.3460829824      -20.3371744002
 H       -10.0013261130        5.5735818529      -21.2320023507
 H        -8.3621609099        2.5916637335      -22.5348023767
 H        -9.0661152937        4.1930889975      -23.0969386580
 H       -10.0550120079        3.0266866297      -22.5471078957
 H        -5.5567686851        0.8155822908      -23.1918733005
 H        -4.0840993574       -0.0301551955      -23.2869578118
 H        -4.1665385338        1.5087556999      -24.0922728675
 H        -3.2184614517       -0.0403206895      -20.9148869989
 H        -4.9421640216       -0.0368753662      -20.5593852692
 H        -3.7875623608        1.1581399086      -19.8111719633
 H        -0.1870524198        8.2080246596      -20.6698652107
 H        -1.4230293871        7.1377488554      -21.6359574405
 H         0.3990423928        6.6270204971      -21.5324302071
 H         1.1534832793        6.3353469464      -18.4052895476
 H         1.0606456283        5.2160243866      -19.7647203310
 H         0.1120629383        4.8153605617      -18.3140773705
 H        -6.9916087447        7.4522798878      -17.6288082837
 H        -7.1084460468        8.9541712803      -16.9292180625
 H        -7.2953320303        7.2937207216      -15.9186768397
 H        -4.1528082799        9.2245517002      -15.1493779704
 H        -5.4219250433        8.3490452457      -14.2786238220
 H        -5.7723405441        9.6054220417      -15.3668542894
 H         0.6888196424        3.3045500895      -12.5903636403
 H        -0.5701909994        3.6555941626      -11.4361323408
 H         0.1356366838        4.9567834323      -12.4617412970
 H        -1.0395679554        3.4033232304      -15.7243578852
 H         0.4465501510        3.0920822217      -14.8412866069
 H        -0.0510767412        4.7377402050      -15.0871257823
 H        -1.4820638167       -2.9236280816      -12.9285229977
 H        -2.8697294331       -2.3060514407      -14.0803934899
 H        -2.9422133918       -3.9414107552      -13.4337578870
 H        -5.1291316199       -1.7721397493      -13.1028824858
 H        -5.2944300378       -1.7801918326      -11.3741881820
 H        -5.1685752866       -3.3273304473      -12.2757292684
 H        -5.6309772667       -7.7666001258       -7.0615895688
 H        -3.8666804304       -7.5909433139       -7.7223715811
 H        -5.1817247961       -6.7103693762       -8.4028494369
 H        -6.6389488514       -6.3617258968       -5.8019579538
 H        -6.6609798046       -4.7671769419       -6.8824590531
 H        -5.9973487230       -4.7191469057       -5.3302025365
 H        -2.2049782384       -7.3329391739        0.8847356850
 H        -2.6524807089       -7.7786719404       -0.6718429044
 H        -3.7357499545       -6.6212187667        0.1248559032
 H        -2.9267882565       -4.0532069410        0.8039650957
 H        -1.4033082321       -3.6334585818       -0.2081067741
 H        -1.2754688208       -4.4229332584        1.2142832165
 H         3.8389470460       -8.2609888861        0.2944837956
 H         4.4600123822       -7.6322611094       -1.2264386943
 H         5.0063115511       -9.1851337381       -0.6108679836
 H         4.3628097405       -9.8193698507       -2.9394701845
 H         2.8346976546      -10.1854777167       -3.4217656025
 H         3.5315863918      -11.1897996821       -2.0579981735
 H        -2.8522476154      -13.8155734244        1.7466837036
 H        -1.0697399667      -13.6520883404        1.3424851444
 H        -2.3751932553      -13.2913468051        0.1829914403
 H        -3.8452273917      -11.4090491155        0.3485885190
 H        -3.6190183749      -10.1604177410        1.5732611229
 H        -4.2650324444      -11.8346723604        2.0104260849
 H         2.1918867804       -7.4023482263        5.2723959582
 H         1.8874663875       -8.2245725442        3.8065560257
 H         2.2946090685       -9.2671390711        5.2768645363
 H         0.9226305350       -9.3556867302        7.4069241034
 H        -0.5087126261       -8.7071192930        7.4302876692
 H         0.7467335145       -7.5715552015        7.5674082382
 Na        0.1591823532       -8.2256587060        1.8118386652
 Na       -4.9595909912        5.4900564401      -18.9830651793
