232

 C        -0.6758170555       -5.8657439096        5.9265669437
 C        -0.1840502016       -6.9179272150        4.9933538628
 O        -0.3724697563       -6.7729139450        3.7471923396
 C         0.5177918334       -8.2643763572        5.5162151336
 C        -0.4531242789       -9.2517297023        4.7391752530
 O        -0.0835411672       -9.6457605859        3.6027775753
 C        -1.7720296408       -9.7714082486        5.2838071018
 C        -2.5380320867      -10.7532166290        4.2973594549
 C        -1.6939863399      -11.7511804384        3.3681419998
 O        -0.8149440215      -12.5117247571        3.7023389886
 C        -2.1100370232      -11.8389984202        1.7761517948
 C        -1.0392030856      -11.0663752255        0.7900500573
 O        -1.2802787899       -9.8094645589        0.6625659419
 C         0.2052163214      -11.6990583249        0.2205019837
 C         1.0685781824      -11.0528756796       -0.8620440065
 C         1.9558901738       -9.8806361018       -0.3917498898
 O         1.8492375445       -9.2558640843        0.6606656099
 C         2.9751674982       -9.3285249378       -1.4750492413
 C         2.1105296990       -8.1456415596       -2.0957672222
 O         1.3925154553       -8.2811473438       -3.0506693718
 C         2.0742803379       -6.7280285810       -1.4865246354
 C         0.8244753388       -5.8258698076       -1.6291806139
 C        -0.1709965708       -6.0205546196       -0.4542515196
 O         0.2341051932       -6.4591749560        0.6281705126
 C        -1.6984289931       -5.6611331805       -0.5518550574
 C        -2.1478084088       -5.1596775708       -1.9676996548
 O        -1.5874811536       -4.1799746707       -2.4150786239
 C        -3.1985935859       -5.9547823194       -2.7745445882
 C        -3.5050331850       -5.1924356313       -4.1295332324
 C        -3.9770975847       -6.2582183440       -5.2082673572
 O        -3.8718868484       -7.4373809231       -4.9852392051
 C        -4.5693710619       -5.7893586216       -6.5626242027
 C        -3.8557483240       -4.5097865888       -7.3037907265
 O        -3.1579877170       -3.8264829783       -6.6155298203
 C        -4.2554126142       -4.2900957205       -8.7779784576
 C        -3.3290957540       -3.1929033389       -9.4585267548
 C        -3.2232638698       -3.4095088491      -10.9745824437
 O        -3.2163842692       -4.5970460505      -11.3675169436
 C        -3.4498568380       -2.2200439155      -12.0377297212
 C        -2.7115656891       -0.9237501113      -11.6850273148
 O        -1.8637636732       -0.8142879844      -10.8425969192
 C        -3.0389347663        0.2883420002      -12.6860344743
 C        -2.3454635849        1.5735035299      -12.3067340607
 C        -2.1636368448        2.4326682124      -13.5839032067
 O        -2.8737688954        2.1842637556      -14.5616054770
 C        -1.2513530069        3.7292535313      -13.6012028241
 C        -2.1734085710        4.9560194728      -13.4272151740
 O        -2.3082120937        5.5180143462      -12.3935732492
 C        -3.0539607541        5.1681995723      -14.7733565237
 C        -4.4669474711        5.9644623061      -14.5084267825
 C        -5.0880068866        6.3822792819      -15.9021814508
 O        -5.3244821449        5.5487966556      -16.7577328036
 C        -5.3068939343        7.8752157976      -16.4734983948
 C        -4.4037361946        8.1235187117      -17.6878194485
 O        -4.7732188552        7.6981148111      -18.7902878554
 C        -2.9740175978        8.8397291753      -17.4864206468
 C        -2.0022012206        8.6109457233      -18.6730713335
 C        -1.4366110872        7.2055738702      -18.5000533543
 O        -1.2858372520        6.6779864159      -17.4188862508
 C        -0.8036081501        6.4082289008      -19.7312114264
 C        -1.8331251488        5.2968400136      -20.1974018571
 O        -3.0205793260        5.3980202637      -20.0459051498
 C        -1.3232440356        4.0797259774      -21.0047477375
 C        -1.9106201392        2.6701067958      -20.6798035597
 C        -2.6616744771        2.1446908418      -22.0042403820
 O        -2.1690187704        2.2113294390      -23.1088985919
 C        -4.1474777184        1.6015771442      -21.7934146000
 C        -4.9397505442        2.9216156631      -21.3318035065
 O        -5.0452323883        3.2696304066      -20.1827636468
 C        -5.5874488861        3.6380430182      -22.4792464885
 C        -6.2980895369        4.9317890927      -21.9763846654
 C        -7.3282883337        4.6794969870      -20.8522907979
 O        -7.1481446817        5.1857678695      -19.7236569560
 C        -8.7287501991        3.9435162367      -20.8616534170
 C        -8.5825155022        2.6848627043      -20.0006988858
 O        -7.8199221250        1.7793466620      -20.3627761574
 C        -9.5549821652        2.2926641934      -18.7939318617
 C        -9.5948480231        2.9991651647      -17.4443400025
 C        -9.2105155906        2.0372502141      -16.2541567037
 O        -8.0712439835        1.9558031315      -15.9152770670
 C       -10.2424407136        1.2345622880      -15.4205837088
 C       -10.7193145687        2.2014291161      -14.3131886152
 O       -11.6547695587        2.9451875741      -14.4257599673
 C        -9.8672242890        2.3414395417      -13.0115056658
 C       -11.4484103164        0.7299977296      -16.2188137075
 C        -9.4561611700       -0.0074152355      -14.6522023901
 C        -9.8019863259        5.0171214259      -20.3312354751
 C        -9.1509220134        3.6191813394      -22.2757811726
 C        -4.5984165761        0.9086515413      -23.0595705112
 C        -4.2649250511        0.6471834941      -20.6321255855
 C        -0.3579131296        7.2055092667      -21.0122960231
 C         0.5004116588        5.6431476964      -19.2231963186
 C        -6.7292383982        8.0481722532      -17.0632429430
 C        -5.0898457926        8.9913921940      -15.3456620082
 C        -0.2725776203        3.6481187720      -12.3599252123
 C        -0.4563141702        3.8124912728      -14.9135591913
 C        -2.8857551500       -2.8411774770      -13.3199003259
 C        -4.9811158072       -2.1115863220      -12.2008834774
 C        -4.4178753619       -6.9374773023       -7.6413032209
 C        -6.0675483312       -5.4585959743       -6.3667845806
 C        -2.6639052970       -6.8419323944       -0.0177130885
 C        -1.9769463001       -4.5338980727        0.4659195899
 C         4.2540643759       -9.0209749578       -0.7229332802
 C         3.2748264542      -10.2986191826       -2.6073326551
 C        -2.2314406299      -13.4274366845        1.4324865632
 C        -3.5035600166      -11.1890160416        1.3774829717
 C         1.9373606574       -8.5054177807        4.8413313675
 C         0.4924575495       -8.4552717144        7.0618021426
 H        -0.8730143675       -6.3119891411        6.9033251237
 H        -1.4931392370       -5.2259317038        5.5140640618
 H         0.0964539182       -5.1868867791        6.0018774835
 H        -2.4935954965       -8.9781529523        5.5766824628
 H        -1.5519262133      -10.3448885935        6.2184391967
 H        -3.1209064363      -10.1236690831        3.5734785463
 H        -3.2394250493      -11.1968948889        4.9587849331
 H         0.1421653060      -12.8142469665        0.1362400761
 H         0.9158306749      -11.7244991447        1.1969740666
 H         0.5542554606      -10.7804793257       -1.8009266078
 H         1.7597473935      -11.8662090603       -1.2580890362
 H         2.8881462073       -6.1071775348       -1.9504970725
 H         2.4458681554       -6.7188275750       -0.4175459356
 H         0.3097123246       -6.0615711309       -2.5526808083
 H         1.1715796039       -4.7775403590       -1.6581647187
 H        -4.2212821429       -5.9047168206       -2.1747287687
 H        -2.8551666968       -6.9966392546       -2.8416649489
 H        -2.6517217475       -4.5792976762       -4.4391220126
 H        -4.2145912716       -4.3586205412       -3.9810801570
 H        -5.2751126716       -3.9117277392       -8.7430021682
 H        -4.0268961540       -5.1721148404       -9.3649269338
 H        -2.3527688957       -3.2686586125       -9.0390322794
 H        -3.6078479615       -2.2045282546       -9.1582282079
 H        -4.0827958399        0.5428691098      -12.7474460787
 H        -2.7247988758       -0.1282082867      -13.6277016993
 H        -1.4228765443        1.2165250681      -11.8600196709
 H        -2.8755736416        2.1779865025      -11.5982423809
 H        -3.1779411670        4.1177742938      -15.2382982967
 H        -2.4988876242        5.9214717899      -15.3524348260
 H        -4.1607740416        6.9210607824      -13.9046288976
 H        -5.1101002925        5.4211044037      -13.8552857257
 H        -2.5896964047        8.3436241261      -16.5981038534
 H        -3.2263920967        9.8336316933      -17.1749700923
 H        -1.2524011940        9.3417617526      -18.6023101719
 H        -2.5073498823        8.7047555671      -19.6635005904
 H        -0.2572680150        3.8739824527      -21.0967809848
 H        -1.3795537174        4.2373401764      -22.1322131750
 H        -2.6405910629        2.7238904598      -19.9022857379
 H        -1.1229543058        1.9693276028      -20.3510461344
 H        -6.3608701300        2.9521254835      -23.0063648113
 H        -4.8703959033        3.9157632497      -23.2638855056
 H        -6.7239306314        5.5141172554      -22.7747067501
 H        -5.4351753859        5.4845368527      -21.5069130669
 H        -9.2447859101        1.3394906110      -18.5047394215
 H       -10.6130660713        2.1842591677      -19.1655747364
 H       -10.6316214647        3.2997965561      -17.1963966869
 H        -8.9309696067        3.8705092919      -17.3625828005
 H       -10.0241709108        3.3879307722      -12.6309792137
 H        -8.7913549525        2.3928198130      -13.2274138996
 H       -10.1300200870        1.5479059035      -12.4210652241
 H       -11.9749016746        0.0093856536      -15.5900806557
 H       -11.1758822744        0.1353385946      -17.0625459538
 H       -12.1706536861        1.4824510516      -16.5931866116
 H        -9.0037669248       -0.6266000446      -15.3377084006
 H       -10.1935392574       -0.5728691151      -14.0579884267
 H        -8.6203025362        0.4611436106      -14.1020037084
 H        -9.4729005099        5.3014109141      -19.3747903787
 H       -10.7733718797        4.6204988678      -20.2518240392
 H        -9.8962467812        5.8609384748      -20.9987652273
 H        -8.3136410707        3.3580382032      -22.9232866297
 H        -9.7249602955        4.3699771606      -22.7081386841
 H        -9.8891379684        2.8925998310      -22.3831081686
 H        -5.6299456178        0.4886791735      -23.0672570340
 H        -3.8583243504        0.0740258751      -23.2396217546
 H        -4.3619372895        1.5461715660      -23.9558456621
 H        -3.3235483980        0.0101302811      -20.4812591063
 H        -4.9799286879       -0.1325474140      -20.9751542922
 H        -4.5602155954        1.1370741892      -19.6821555508
 H         0.0135371295        8.1153343009      -20.8143701019
 H        -1.1222069681        7.2329887201      -21.7470594231
 H         0.3956772567        6.6351457539      -21.3815258085
 H         1.3508772283        5.8867647001      -19.8026516278
 H         0.4395727724        4.5778187415      -19.2471236581
 H         0.6819780015        5.9213976304      -18.1824876744
 H        -7.0123982757        7.1815105348      -17.6849604691
 H        -6.6494461670        8.8173064655      -17.7342898662
 H        -7.3733730114        8.1159407877      -16.2175316109
 H        -4.0943443294        8.7284145553      -14.7572768216
 H        -5.9902617298        9.0812762470      -14.7362352445
 H        -4.9486593066       10.0284066832      -15.7459125758
 H         0.2384031862        2.7068027655      -12.1183424440
 H        -0.8461590045        3.8583397264      -11.4707059742
 H         0.5053756765        4.3581242776      -12.4121262079
 H        -1.1047592037        3.6469244226      -15.7891603986
 H         0.3643617420        3.0836584488      -14.9177268002
 H         0.0507302782        4.7715566653      -15.0176432864
 H        -1.8014458806       -2.8249093712      -13.3249764698
 H        -3.2668164073       -2.5046466937      -14.1850833093
 H        -3.2604578246       -3.8270777072      -13.1946748934
 H        -5.2649084065       -1.4507188733      -13.0148623526
 H        -5.5273729178       -1.6457530184      -11.3137296665
 H        -5.2359360870       -3.1425580838      -12.4849218612
 H        -4.3227377892       -7.8291210955       -7.0564091780
 H        -3.5639583571       -6.7473312213       -8.2472314755
 H        -5.2535739779       -7.1036489447       -8.3097531187
 H        -6.4893276789       -6.1143229962       -5.6480463843
 H        -6.5039746096       -5.6778230503       -7.3346464792
 H        -6.2445927630       -4.3986662483       -6.1429529592
 H        -2.3746898598       -7.0047797579        1.0306649766
 H        -2.4418467247       -7.8369638192       -0.4493173525
 H        -3.7013284360       -6.6278793142       -0.1773666475
 H        -3.0604157593       -4.3950749210        0.4942879594
 H        -1.4406460964       -3.5892397035        0.3298772285
 H        -1.8313341486       -4.9125628616        1.5528252202
 H         4.1930550664       -8.2319138225        0.0297281659
 H         5.0447657247       -8.7476291500       -1.4294699146
 H         4.5217924298       -9.9866827288       -0.1466894028
 H         3.8493235827       -9.8273858699       -3.3785179205
 H         2.3703757392      -10.5743066204       -3.1466531149
 H         3.7948110493      -11.1522984940       -2.2793882265
 H        -3.0677257684      -13.8559798115        1.9204116630
 H        -1.2916392141      -13.9087423247        1.7126347325
 H        -2.4173272021      -13.6852051458        0.3845801740
 H        -3.7888963330      -11.5607230089        0.3854486569
 H        -3.3284445838      -10.1547408260        1.2018509083
 H        -4.2953498395      -11.3259335693        2.0616036368
 H         2.8141392593       -8.0864011055        5.3334760464
 H         1.9216908893       -7.9175115347        3.9183882013
 H         1.9942874413       -9.5239379719        4.5250543773
 H         0.8818199943       -9.4306809087        7.3171680871
 H        -0.4968273080       -8.5636814206        7.6032826833
 H         1.1739227004       -7.7500480487        7.5157585334
 Na       -0.2559819225       -8.1694915121        1.9773580479
 Na       -5.1044894585        5.2675873752      -18.9715760691
