232

 C        -0.4896376885       -5.7910095007        5.9875457126
 C        -0.1058812283       -6.8530043721        4.9544539010
 O        -0.5159362777       -6.7682578778        3.8206502927
 C         0.5263260586       -8.2417434624        5.3700462995
 C        -0.3674315415       -9.3247064697        4.6610847863
 O         0.0327377313       -9.6509746594        3.5527127390
 C        -1.5955923822       -9.9539107773        5.2671299428
 C        -2.3519756776      -10.8572489106        4.2409500145
 C        -1.5535746699      -11.6425045199        3.2522832738
 O        -0.7990857503      -12.4588376802        3.7196804702
 C        -2.0981617868      -11.7694898774        1.7262984197
 C        -1.0617941261      -11.0374880001        0.9063284820
 O        -1.2481415624       -9.9326977239        0.4945934337
 C         0.1242842838      -11.8738601420        0.4091832213
 C         1.0065949787      -11.1232758757       -0.5963080899
 C         1.8576029140       -9.8861265369       -0.3467139456
 O         1.7896138346       -9.2292902457        0.6859383792
 C         2.8622743751       -9.4018271393       -1.4544879772
 C         2.0359910166       -8.0939579947       -2.0442111713
 O         1.3424032717       -8.3071057397       -3.0319535295
 C         2.1601807622       -6.7259048519       -1.3407478109
 C         0.9201318266       -5.8618738443       -1.5672425962
 C        -0.1949748418       -6.0999015983       -0.4239484575
 O         0.3168210200       -6.4568260364        0.5956316855
 C        -1.7570929528       -5.6962503370       -0.5413693654
 C        -2.0757345970       -5.1608367389       -1.9920501446
 O        -1.4980202169       -4.2278066086       -2.5248848255
 C        -3.3303491439       -5.7401066891       -2.7572416527
 C        -3.4929164833       -5.2185798949       -4.1348140221
 C        -3.9546543777       -6.1572733402       -5.2917165710
 O        -3.7918461212       -7.4065194501       -5.0114495004
 C        -4.4612941754       -5.7786067266       -6.6762775626
 C        -3.8163584459       -4.4056807635       -7.2730276902
 O        -3.1373095923       -3.6620187859       -6.6781311502
 C        -4.2099923492       -4.1326912249       -8.7605348733
 C        -3.4408627213       -3.1243051784       -9.5224195016
 C        -3.3076458333       -3.3549203851      -11.0701785674
 O        -3.0869881850       -4.4480757707      -11.5691091326
 C        -3.5072594374       -2.2846740295      -12.1252941057
 C        -2.7689718847       -0.9341493054      -11.8193607040
 O        -2.0081081128       -0.7620970784      -10.8555224761
 C        -3.1339492811        0.2863535758      -12.7280740472
 C        -2.4365077593        1.6106010619      -12.4068407008
 C        -2.2861550874        2.5458463504      -13.6277237560
 O        -2.9429074183        2.3438840766      -14.6710338280
 C        -1.3359683074        3.6997463878      -13.5715675934
 C        -2.3034240949        4.9289495148      -13.3903207087
 O        -2.3457010929        5.5867984350      -12.3588134076
 C        -3.1504506019        5.2547491229      -14.6612292964
 C        -4.4765978916        6.1023137580      -14.5095030474
 C        -5.0010905002        6.4687218921      -15.9227055563
 O        -5.3251430709        5.4715069131      -16.6105970374
 C        -5.2704502546        7.8598081816      -16.4033507484
 C        -4.2644654792        7.9793320172      -17.7017145668
 O        -4.6391365423        7.7026513851      -18.8142758832
 C        -2.9698360373        8.7743050948      -17.4909780881
 C        -1.8862456721        8.5270361182      -18.5884116228
 C        -1.2293536543        7.1981074789      -18.4173238786
 O        -1.4354588704        6.5525944269      -17.4104828241
 C        -0.6690018468        6.4038861800      -19.8256597332
 C        -1.7865160169        5.2639676864      -20.2088232648
 O        -2.9857609746        5.4429995399      -20.0394559452
 C        -1.2321823342        4.1170104493      -21.0441981560
 C        -2.0052570628        2.8032143759      -20.6953071115
 C        -2.6870790040        2.1299075323      -21.8674985061
 O        -2.2183648877        2.0327380540      -22.9495410859
 C        -4.1522389937        1.5265363626      -21.7194895634
 C        -4.9428507576        2.8432262859      -21.3503986930
 O        -4.8972665134        3.1253882894      -20.1128435064
 C        -5.6235903137        3.7348324937      -22.3842467691
 C        -6.3506828863        4.9387492061      -21.8394812300
 C        -7.4065194902        4.7348529296      -20.7559965674
 O        -7.2267726591        5.3528086945      -19.7162868496
 C        -8.8046146328        4.0021468638      -20.8949393272
 C        -8.6185368061        2.5863082686      -19.9814935066
 O        -7.6975939330        1.9261040330      -20.3062153764
 C        -9.6503168453        2.1038362994      -18.9102816815
 C        -9.7013655150        2.8223550747      -17.4918353086
 C        -9.2307563258        1.9295428171      -16.2768000437
 O        -8.0543844346        1.9902837256      -16.0085471671
 C       -10.2731473280        1.0574666154      -15.3690593346
 C       -10.6761841289        2.2165166999      -14.2381823638
 O       -11.5435161463        3.0272191170      -14.5005552572
 C        -9.9190541785        2.2426772206      -12.8853678866
 C       -11.4956602694        0.6236552686      -16.2005244555
 C        -9.6973243614       -0.1868079898      -14.7574583165
 C        -9.7646291743        5.0134160289      -20.2144174933
 C        -9.2865985319        3.6239954891      -22.3417585898
 C        -4.6692732724        0.9845195363      -22.9664334115
 C        -4.2694409730        0.4999988154      -20.4707855153
 C        -0.3869692018        7.2953797553      -21.0326579248
 C         0.6133027446        5.6118729306      -19.2938096041
 C        -6.7137838017        8.0108200247      -17.0515819513
 C        -5.0602149835        9.0581888957      -15.3640610333
 C        -0.2970810493        3.6973109949      -12.3728093271
 C        -0.4772393251        3.6905195113      -14.8435129234
 C        -2.9528627457       -2.7541438904      -13.5342167734
 C        -5.0387350199       -1.9672530784      -12.1046310503
 C        -4.2297493367       -6.9969249551       -7.5757380039
 C        -6.0610748271       -5.4722126363       -6.4984541064
 C        -2.5325067223       -6.9614455574       -0.1351242860
 C        -1.8642315850       -4.4746008619        0.4845377153
 C         4.2266837415       -9.0574374628       -0.7875243258
 C         3.1555910497      -10.3376545351       -2.6790112799
 C        -2.1508849694      -13.2403668463        1.5911543928
 C        -3.5311979514      -11.2463150381        1.4567646696
 C         1.9549261319       -8.4433965218        4.9119323256
 C         0.4622844697       -8.4648295628        6.8765857221
 H        -0.6668631066       -6.2306470256        6.9294365953
 H        -1.3669168084       -5.3830528904        5.6151845312
 H         0.1757351400       -4.8788944070        6.0518079475
 H        -2.3026202801       -9.2114340735        5.4839531706
 H        -1.3797322736      -10.4231254947        6.1869047031
 H        -3.1686502798      -10.2016714030        3.7833618251
 H        -2.8708893536      -11.5211211952        4.9176636948
 H        -0.3048625176      -12.7305586111       -0.2260172682
 H         0.5451840174      -12.5706944190        1.2088520886
 H         0.1958305480      -10.7707291866       -1.3116759671
 H         1.5274498375      -11.8440154027       -1.2803760160
 H         3.0700661197       -6.1236119166       -1.5949738406
 H         2.3592433390       -6.9196289394       -0.2524971263
 H         0.5309587773       -6.2001281893       -2.5377704788
 H         1.2342745121       -4.8025741670       -1.6600912775
 H        -4.3470080741       -5.6229334568       -2.2361913328
 H        -3.0575754363       -6.7894894306       -2.7923751863
 H        -2.5244336629       -4.8132175916       -4.4404969408
 H        -3.9960838161       -4.2219366067       -4.0818949144
 H        -5.1964732157       -3.6316152472       -8.7374741374
 H        -4.1016272986       -5.0487155379       -9.3368422303
 H        -2.3945419233       -2.9183128198       -9.1996486238
 H        -3.8796154473       -2.1479780560       -9.2237878339
 H        -4.1814639073        0.4695291868      -12.5855635317
 H        -3.0190568406       -0.0843178370      -13.7884066910
 H        -1.5244787767        1.2947545348      -12.1338617562
 H        -2.8352785552        2.1678381294      -11.5859058664
 H        -3.4669043100        4.2323585989      -14.9006389135
 H        -2.5342621657        5.7329289353      -15.4290370845
 H        -4.3215293981        6.9460564582      -13.8182047329
 H        -5.1840601668        5.4488555149      -13.9130049596
 H        -2.5991019026        8.6778973602      -16.4404904769
 H        -3.4426071822        9.7897118073      -17.5619577731
 H        -1.1999565705        9.3174371732      -18.3425290859
 H        -2.2400814760        8.6598894383      -19.6460584945
 H        -0.2053521834        3.8140015550      -20.9016757570
 H        -1.1789046768        4.2834369386      -22.0885186028
 H        -2.6909428467        2.8565209922      -19.8427534930
 H        -1.2070717142        2.1273173699      -20.3918910349
 H        -6.3047728164        3.2050468099      -23.0416438077
 H        -4.8813777998        4.1493426940      -23.0673725663
 H        -6.8702939155        5.4326193857      -22.7475573536
 H        -5.5766009726        5.6243938903      -21.4635748901
 H        -9.4828479963        1.0868238704      -18.6986531285
 H       -10.6692808157        2.2300708548      -19.3988377123
 H       -10.6795301836        3.2074036202      -17.2582969511
 H        -8.9637418379        3.7135414899      -17.4568858779
 H       -10.1454991166        2.9911023575      -12.2016783959
 H        -8.8651855934        2.4797781630      -13.2298693796
 H        -9.9742858508        1.1600381927      -12.6074986913
 H       -12.0174874756       -0.2806559448      -15.8712701330
 H       -11.2025365279        0.3407082736      -17.1802686364
 H       -12.2816549091        1.4433667932      -16.3101387366
 H        -9.2910410188       -0.8032942767      -15.5413263267
 H       -10.4759374087       -0.7076463492      -14.2626941935
 H        -8.9113823530        0.0664896336      -14.1387103055
 H        -9.3605005902        5.0628738961      -19.2598836767
 H       -10.8094773347        4.6023761563      -20.1854457510
 H        -9.8130892121        6.0097586842      -20.5723834987
 H        -8.5160661076        3.1615392629      -22.9609783950
 H        -9.7595523941        4.3847787707      -22.9004658537
 H       -10.1626900968        2.9996419566      -22.2786835794
 H        -5.6969496053        0.6360927092      -22.8323441655
 H        -4.0319923570        0.2114237986      -23.4105527279
 H        -4.6142848272        1.7636212481      -23.7189468187
 H        -3.4295937416       -0.1683101956      -20.4171681246
 H        -5.1103154175       -0.2331168318      -20.6371598525
 H        -4.3680680804        1.0719018659      -19.5891253187
 H         0.3341750360        8.0292691347      -20.7961584731
 H        -1.3069481134        7.7200470745      -21.1907996146
 H        -0.0411461250        6.7964706016      -21.9163316354
 H         1.2383550941        5.3019418100      -20.1464107649
 H         0.4085641362        4.7807216569      -18.6931845728
 H         1.2172437179        6.3350808986      -18.7488011355
 H        -6.9582632448        7.0948900600      -17.5811639963
 H        -6.6332028497        8.8036421511      -17.8482286348
 H        -7.4477835890        8.1561161864      -16.2144677725
 H        -4.3441817650        8.8557784698      -14.6211040096
 H        -6.0876848849        9.3785132583      -14.9814405314
 H        -4.7217320828        9.9882402532      -15.8811344423
 H         0.0885399704        2.7174079665      -12.2169821856
 H        -0.7770619184        3.8579158076      -11.4295245177
 H         0.5713202162        4.3007913539      -12.4790786985
 H        -1.1025521561        3.6560154566      -15.7604857901
 H         0.2959481288        2.9315195057      -14.8624353794
 H         0.0688678292        4.6183294459      -14.8463990728
 H        -1.9069628031       -2.8364041394      -13.5545342500
 H        -3.2131992072       -2.0471651497      -14.3154353756
 H        -3.4749663444       -3.7051297505      -13.7201394871
 H        -5.1843507744       -1.0875862439      -12.7752650544
 H        -5.3238957164       -1.5148309055      -11.1710298896
 H        -5.6211449138       -2.8056677310      -12.4173539106
 H        -4.1410853244       -7.8601319628       -6.9132104420
 H        -3.4000140589       -6.8596300313       -8.2169039690
 H        -5.1063979551       -7.1637026085       -8.1772872988
 H        -6.4510064914       -6.1746094897       -5.7757585662
 H        -6.5390124502       -5.7425047934       -7.4588151490
 H        -6.2276569094       -4.4748902625       -6.1531640042
 H        -2.2961535726       -7.2141451567        0.8337403863
 H        -2.1203380763       -7.8002932030       -0.7447808001
 H        -3.6119216193       -6.9247882147       -0.3390698969
 H        -2.9206656509       -4.1576618647        0.5063659103
 H        -1.1961940541       -3.6283045945        0.2819338823
 H        -1.8092411733       -4.8504243924        1.5079069402
 H         4.1788439059       -8.1224699016       -0.2944590529
 H         5.0501487882       -8.9438334759       -1.5077331398
 H         4.4376994548       -9.8113448947        0.0301202197
 H         3.6574382606       -9.7884828211       -3.4232876929
 H         2.3184223278      -10.8452791721       -3.1967590473
 H         3.9080315547      -11.0898990468       -2.3753832601
 H        -3.0028886747      -13.6685661981        1.9889380650
 H        -1.2542266929      -13.5974986441        2.0243358829
 H        -2.1398182391      -13.5736036377        0.5595428011
 H        -3.8526106360      -11.4103376260        0.4531546172
 H        -3.4972167605      -10.1859930188        1.5880506044
 H        -4.2063803417      -11.6713366402        2.1882095643
 H         2.5806624666       -8.0175132712        5.6215876111
 H         2.3036448364       -8.0332685205        3.9757428296
 H         2.0183908030       -9.4877242073        4.8324344489
 H         0.6864042463       -9.4425652287        7.2924771255
 H        -0.5421553838       -8.2909006559        7.3077880510
 H         1.2675494533       -7.7687267373        7.2944984299
 Na       -0.3074222819       -8.2401476587        1.9512920871
 Na       -5.0631625137        5.2532571859      -18.9702708694
