232

 C        -0.2455965009       -5.7614174190        5.9860874456
 C        -0.2680655777       -6.8709958445        4.9364160440
 O        -0.5993891997       -6.6242440739        3.8232096451
 C         0.5586303531       -8.2767998949        5.3560892486
 C        -0.2476861391       -9.4789803797        4.5264305075
 O         0.0756847573       -9.8248547275        3.4296993849
 C        -1.4000335302      -10.0760183136        5.3037901122
 C        -2.4517484849      -10.7337755130        4.3293182445
 C        -1.6025880660      -11.6727035293        3.3656534599
 O        -0.6043609512      -12.3248360801        3.6173397126
 C        -2.0667225614      -11.8027075753        1.8885605150
 C        -1.1068043977      -11.0448598473        0.8818562364
 O        -1.1917524736       -9.9651283209        0.4081166475
 C         0.1381961509      -11.9132196109        0.4633559661
 C         0.9473908891      -11.2107157746       -0.6387333187
 C         1.7644458774       -9.9402804141       -0.2303848350
 O         1.6473656205       -9.2132147820        0.7390957507
 C         2.7702732859       -9.3962984347       -1.3974373940
 C         2.0284574906       -8.1364860912       -1.9762362721
 O         1.3057449799       -8.2457498798       -2.9418200837
 C         2.1511654051       -6.8281224245       -1.2795423481
 C         0.9036037907       -5.9521719261       -1.5799350014
 C        -0.0686404138       -6.0498878263       -0.4273017831
 O         0.2168855130       -6.5201957558        0.6400129514
 C        -1.6222869523       -5.7447536001       -0.6294230029
 C        -2.0558454370       -5.1594244215       -2.0050158833
 O        -1.3420086728       -4.3456359326       -2.5350158038
 C        -3.3948223413       -5.5697199126       -2.7850422140
 C        -3.4431900255       -5.0702164049       -4.2239685306
 C        -3.7879911591       -6.1504630425       -5.2391543337
 O        -3.7378363656       -7.3263740195       -4.9398748879
 C        -4.3721309676       -5.7606722852       -6.7510290979
 C        -3.8321915921       -4.3823209849       -7.3416770203
 O        -3.1103720320       -3.5632972266       -6.6915838011
 C        -4.2681271085       -4.0741159084       -8.8634486836
 C        -3.4722420840       -2.9974028911       -9.7087844350
 C        -3.2779899077       -3.4082622752      -11.1623333091
 O        -2.9625854912       -4.5196468077      -11.4291266241
 C        -3.6182896346       -2.1534918373      -12.2738326893
 C        -2.8987513963       -0.7747757541      -11.8790894330
 O        -2.1438580770       -0.7455863858      -10.9199006393
 C        -3.2677810965        0.3373378081      -12.7778548000
 C        -2.4349178052        1.5552470539      -12.4780359469
 C        -2.3570552311        2.5268628664      -13.6819928496
 O        -3.0059342318        2.4032571361      -14.6713844564
 C        -1.3858021120        3.7622807142      -13.5278191969
 C        -2.3628453876        4.9832473484      -13.4176526458
 O        -2.4635574690        5.6557821005      -12.3998199765
 C        -3.2302722886        5.3596180023      -14.6320541710
 C        -4.4185581937        6.2349505117      -14.4433281082
 C        -5.0470218462        6.4045660638      -15.8533924333
 O        -5.2481913021        5.4172475766      -16.5097345124
 C        -5.1998125864        7.9534614381      -16.4783787345
 C        -4.1778052230        8.1266180870      -17.7524492567
 O        -4.4419246109        7.5228592636      -18.7631357190
 C        -2.8220537850        8.8956920862      -17.4743695645
 C        -1.8290208472        8.4685551356      -18.5859434025
 C        -1.3901311905        6.9432227438      -18.5241985156
 O        -1.3835002892        6.3430869179      -17.4697302142
 C        -0.6587162933        6.3991626413      -19.7328698948
 C        -1.6180655251        5.3073734759      -20.2970410158
 O        -2.7980631606        5.5432055680      -19.9958979225
 C        -1.1881874422        4.0992018724      -21.0876041834
 C        -2.0429843224        2.7895234852      -20.6064349532
 C        -2.6908252950        2.0585932474      -21.7841499115
 O        -2.1665552577        1.9166540626      -22.8726269617
 C        -4.2879016427        1.5278412984      -21.6590726388
 C        -5.0598292459        2.7759110305      -21.1212605837
 O        -4.8642199248        3.2412145167      -19.9820000440
 C        -5.6364649484        3.6357828654      -22.2292528284
 C        -6.4564032250        4.9350233601      -21.8170167677
 C        -7.5413858211        4.8555804625      -20.6311916477
 O        -7.3026877203        5.4396575344      -19.6220208574
 C        -8.8546328418        4.0219346012      -20.6969410284
 C        -8.6379768935        2.6357090975      -20.0402494093
 O        -7.6148402953        2.0326786648      -20.2206381369
 C        -9.7279038069        2.0135343364      -19.1104365126
 C        -9.8164171020        2.5868291863      -17.6045856829
 C        -9.2343908379        1.8245772254      -16.3548885275
 O        -8.0693299162        1.8839484253      -15.9765385661
 C       -10.2850824780        1.0503411680      -15.3981086535
 C       -10.6655157136        2.1059391752      -14.3195402969
 O       -11.3904202002        3.0481357881      -14.5730290829
 C        -9.9810774930        2.0608238047      -12.9333142394
 C       -11.5846108784        0.7471010786      -16.1971745068
 C        -9.7470669970       -0.2452981470      -14.8648453288
 C        -9.9340215240        4.8748614879      -20.0820525433
 C        -9.2911443228        3.6651007639      -22.1766481186
 C        -4.7560490223        0.9131244998      -22.9899476049
 C        -4.2124065059        0.4219082059      -20.4282670643
 C        -0.4682918743        7.3476996308      -20.8431812188
 C         0.7443731095        5.7443527514      -19.3170293657
 C        -6.6953543287        7.9152379175      -16.9705082106
 C        -5.0159098703        9.0184066185      -15.5147928108
 C        -0.4131997088        3.7704715938      -12.3395187444
 C        -0.5356842924        3.6940382901      -14.8412634870
 C        -3.1773340086       -2.5562553215      -13.6712784170
 C        -5.1318633553       -1.8669691510      -12.1277052210
 C        -4.1124408128       -6.9806377543       -7.6423299272
 C        -5.9150811905       -5.4730389917       -6.6078799523
 C        -2.3339712561       -6.9571382253       -0.2749446451
 C        -1.8034546539       -4.5628729047        0.3799388985
 C         4.1334497049       -8.9997757157       -0.8593057433
 C         2.9272859050      -10.3789738799       -2.5928345368
 C        -2.0909779664      -13.3692201046        1.5552374973
 C        -3.5038772143      -11.1897430115        1.6578764488
 C         2.0462044190       -8.2669725225        4.9541332058
 C         0.3910141933       -8.4854645990        6.9067037184
 H        -0.2515315494       -6.0563541901        7.0220085295
 H        -1.0639606029       -5.0803863908        5.8028993297
 H         0.6360728858       -5.1195028401        5.7172262277
 H        -1.8673530001       -9.4384698927        6.0119935166
 H        -0.9074253418      -10.8241732161        5.8709276088
 H        -3.0444247001       -9.9787594971        3.8596165282
 H        -3.1747367252      -11.2895889735        5.0179419757
 H         0.0078573886      -12.9624654608        0.1759416027
 H         0.6579179945      -12.0832278688        1.3343307343
 H         0.2583251845      -11.0241374248       -1.4938592064
 H         1.6498748383      -11.9015275185       -1.0681439777
 H         3.0715355030       -6.2759101230       -1.4593394095
 H         2.2704846855       -6.9718669104       -0.1997003591
 H         0.3925499114       -6.1653381169       -2.5499292892
 H         1.2543838444       -4.9118780765       -1.6062542597
 H        -4.2708619193       -5.3041062203       -2.3305033740
 H        -3.3308591272       -6.6778574152       -2.8857669811
 H        -2.5724584460       -4.4629622643       -4.5150760657
 H        -4.1621230077       -4.2366493920       -4.2892751488
 H        -5.3169851482       -3.7640081886       -8.9029210831
 H        -3.9467531670       -4.9789123137       -9.3900427149
 H        -2.4046966268       -2.8143931491       -9.3295054366
 H        -3.8455165703       -1.9566120418       -9.5051845595
 H        -4.3328830202        0.6105135680      -12.6187136392
 H        -3.2265483930       -0.0500492980      -13.8281981268
 H        -1.4571448709        1.1856578238      -12.0464543693
 H        -2.9006929626        2.1712424489      -11.7179378996
 H        -3.5173853247        4.4488803884      -15.0363380870
 H        -2.5809782963        5.9258083384      -15.3157642350
 H        -4.1105056327        7.1070882360      -13.9769854756
 H        -5.0002104657        5.7397856073      -13.5990483428
 H        -2.5351127002        8.6268289524      -16.4265864340
 H        -3.1153638973        9.9876556952      -17.4845613284
 H        -0.9142485904        9.1192100965      -18.3356263586
 H        -2.2418158714        8.7921726069      -19.5229707345
 H        -0.1613701498        3.7946417615      -21.2888902188
 H        -1.5651280732        4.2155963409      -22.0692931183
 H        -2.9261933736        3.0714127389      -19.9544243101
 H        -1.4043417380        2.1478271404      -19.9816136667
 H        -6.2452719674        3.1196617602      -22.8796482967
 H        -4.8300363005        3.9357037720      -22.9235768068
 H        -7.0058511698        5.2293394379      -22.7767428243
 H        -5.7744963642        5.7478377391      -21.5776278507
 H        -9.6107659888        0.8601637222      -18.9976590579
 H       -10.6546618790        2.2397637447      -19.5733723430
 H       -10.8427727273        2.8929152871      -17.3311040444
 H        -9.2378748121        3.5249615803      -17.5617305365
 H       -10.5226582541        2.7228229350      -12.2422973469
 H        -9.0373410447        2.5567921965      -13.0808167671
 H        -9.8796516026        0.9792380017      -12.5969424310
 H       -12.1631584944       -0.1403984507      -15.8978634775
 H       -11.3575670128        0.4663940964      -17.2678465370
 H       -12.2942110937        1.5541143426      -16.1692398939
 H        -9.6324548609       -0.9013868584      -15.7532620688
 H       -10.4554483423       -0.6540902291      -14.1832574227
 H        -8.8067382143       -0.1706748924      -14.3639887573
 H        -9.7506128574        5.1473462854      -18.9628404095
 H       -10.8917712696        4.4187648366      -20.3283082483
 H        -9.9080807057        5.8819499254      -20.5369830395
 H        -8.6096233922        2.9632140158      -22.6045348568
 H        -9.3949695409        4.4957975089      -22.9445268542
 H       -10.3566989474        3.3159321662      -22.2143881651
 H        -5.7590639703        0.5824650869      -22.8663668349
 H        -4.1359413596        0.1354376569      -23.3086952855
 H        -4.6945752985        1.6020320516      -23.7913286901
 H        -3.5547977082       -0.3424913026      -20.6760683428
 H        -5.0934270088       -0.1236014576      -20.3119632058
 H        -3.9563084638        0.9433798646      -19.5226841938
 H         0.6298676405        7.8352106046      -20.8077258748
 H        -1.2410539068        8.1181358450      -20.6938458306
 H        -0.5781119339        6.9159703127      -21.8564867257
 H         0.8963746637        4.8696459363      -19.9691310232
 H         0.9074383026        5.4077596917      -18.2564132366
 H         1.5340131312        6.3957452781      -19.6564905519
 H        -6.7771258185        6.9939327215      -17.5689892512
 H        -6.9255424984        8.8171144275      -17.6734431914
 H        -7.3466166171        7.7977794294      -16.0494514114
 H        -4.2008074386        8.8155733894      -14.8919580070
 H        -5.9370034593        9.1881158943      -14.9600046192
 H        -4.8049357790        9.9685315122      -15.9560031572
 H         0.1003699824        2.8389054451      -12.3785528579
 H        -0.8425641025        3.6951742387      -11.3618596582
 H         0.3989503133        4.5127211163      -12.3748047689
 H        -1.2725346651        3.7329782459      -15.6159502082
 H         0.0726483758        2.8054823753      -14.9321581836
 H         0.1538538239        4.5353672738      -14.9891770447
 H        -2.1297948260       -2.8744409488      -13.6581040549
 H        -3.1266987003       -1.6148253053      -14.3807368601
 H        -3.8430381097       -3.3292670679      -14.0839461770
 H        -5.4945814151       -1.1035541436      -12.8048060523
 H        -5.2969780556       -1.4355581358      -11.1962479880
 H        -5.6678217422       -2.8010068115      -12.2152755762
 H        -4.2468707341       -7.9083378522       -7.0682958881
 H        -3.0854339474       -6.8819540812       -8.0538514682
 H        -4.8236835170       -6.9334128196       -8.4606596178
 H        -6.3297666568       -6.3609255802       -6.0766556468
 H        -6.4096736322       -5.4919543776       -7.5852553957
 H        -6.0362786319       -4.6229106341       -5.9154675022
 H        -2.1857116676       -7.3187067908        0.7478928398
 H        -2.1745593124       -7.7372676851       -0.9748589137
 H        -3.3714975493       -6.6390819510       -0.4101665450
 H        -2.8438987057       -4.2166135852        0.4300178205
 H        -1.1542156350       -3.7337885841        0.0477353342
 H        -1.6784640335       -4.8658532655        1.3552840816
 H         4.0809148902       -8.0150934885       -0.3360583529
 H         4.8767470383       -8.8350066722       -1.6298375528
 H         4.4405190232       -9.6592419690       -0.1546007907
 H         3.4974703361       -9.9207246491       -3.4520738977
 H         2.0011180702      -10.7947610465       -2.9736093484
 H         3.6066768171      -11.2298131021       -2.3053624191
 H        -2.9202041122      -13.9252505746        2.0440232003
 H        -1.1655330268      -13.8295600995        1.7700480351
 H        -2.2573006458      -13.4654106593        0.5228372020
 H        -3.7550871348      -11.2279780425        0.6179299044
 H        -3.5804401359      -10.1285526749        1.9774065266
 H        -4.2135865389      -11.7828592092        2.2555530767
 H         2.4954398034       -7.4857190725        5.5205493642
 H         2.3172915933       -8.1177014303        3.9471167306
 H         2.3956989798       -9.2717549997        5.1815804757
 H         0.7285959255       -9.4820535298        7.3293709286
 H        -0.6359360068       -8.3887207590        7.2240086634
 H         1.0949168522       -7.8039037642        7.4191894736
 Na       -0.2589065826       -8.2953428505        1.7867195041
 Na       -5.0413882812        5.2872737030      -18.9439370031
