232

 C         0.0192007331       -5.7616973528        5.9160158247
 C        -0.0956809142       -6.8735505134        4.8985799765
 O        -0.6705737866       -6.7431184871        3.7801978556
 C         0.4596826063       -8.2501587260        5.3751759324
 C        -0.1582539767       -9.4965220553        4.6165664217
 O         0.1459309168       -9.7578662852        3.4409054650
 C        -1.1842331716      -10.3118047592        5.3946820001
 C        -2.2376289865      -10.7743956833        4.3237839386
 C        -1.6108760422      -11.7035652290        3.3630799137
 O        -0.5527660490      -12.1867501725        3.7359313471
 C        -2.1274566212      -11.8792896799        1.8245607466
 C        -1.0594275021      -11.2076241497        0.8897722484
 O        -1.3618551771      -10.0277273117        0.4964193395
 C         0.3205041326      -11.7961912491        0.5864361093
 C         1.0332091859      -11.2167605811       -0.6227538290
 C         1.7277304082       -9.9615232377       -0.3273029861
 O         1.5306785683       -9.3711992415        0.7230448839
 C         2.6948695895       -9.4016486940       -1.3749152668
 C         1.9196797815       -8.1803217366       -1.9585043317
 O         1.2294923713       -8.2611534458       -2.9428208457
 C         2.1761244511       -6.8128093071       -1.2085002811
 C         0.9551210403       -5.8991297077       -1.5614519086
 C        -0.0694126609       -6.0989133971       -0.5234461680
 O         0.2262018608       -6.4924588065        0.6248132789
 C        -1.6695555380       -5.7457531636       -0.7384629820
 C        -1.9060238536       -5.1334377047       -2.2068480163
 O        -1.1072882965       -4.3341961617       -2.6673048426
 C        -3.2785356232       -5.4876197882       -2.7536008612
 C        -3.4550187921       -4.8822466765       -4.2938401949
 C        -3.7032651258       -6.0276508561       -5.2315261946
 O        -3.6780808671       -7.1561354433       -4.9417256477
 C        -4.2624895546       -5.6879965343       -6.7851015257
 C        -3.7074527040       -4.3823839137       -7.4943155356
 O        -3.1679655388       -3.5425420084       -6.7981196134
 C        -4.2127597754       -4.1558247362       -8.9239183629
 C        -3.4780323419       -2.9025867525       -9.6578177384
 C        -3.2975441729       -3.2833803642      -11.1486927746
 O        -2.9028045857       -4.3980570642      -11.4911485461
 C        -3.7209953928       -2.2252699396      -12.2402637325
 C        -3.0132981015       -0.8292015722      -11.9031043966
 O        -2.2600944408       -0.6740173005      -11.0203377643
 C        -3.3986447978        0.4439517725      -12.7830405258
 C        -2.4058725973        1.6143182484      -12.4383673466
 C        -2.4060859838        2.5933139348      -13.6132711049
 O        -3.0449087784        2.3708642046      -14.6200374169
 C        -1.4416194036        3.8103579617      -13.5636350540
 C        -2.3338201963        5.1122266543      -13.4369389103
 O        -2.5512432226        5.6623343693      -12.4011652051
 C        -3.1815806768        5.4018086209      -14.7460964865
 C        -4.3578595171        6.3592535450      -14.5004917962
 C        -4.8892766561        6.4766515362      -15.8264944824
 O        -5.1953311281        5.4987990405      -16.4878827072
 C        -5.1445552279        7.9060910530      -16.4712855119
 C        -4.1488050232        7.9989264078      -17.6191821327
 O        -4.1929568908        7.4642563437      -18.7383152754
 C        -2.8394801920        8.8024344639      -17.4494806296
 C        -1.7902096818        8.3805930417      -18.4987199962
 C        -1.2598538267        6.9012546038      -18.4168228225
 O        -1.4611779408        6.1852435102      -17.4455268466
 C        -0.5548423626        6.3977074069      -19.7936282554
 C        -1.5997712121        5.2226811464      -20.2803863415
 O        -2.7520872991        5.5036026336      -20.0369833490
 C        -1.3270862793        4.0382154425      -21.1200133022
 C        -2.0979768068        2.7710499042      -20.6245650493
 C        -2.8128248080        2.0313410238      -21.7354127880
 O        -2.1540153287        1.8102001737      -22.7402120302
 C        -4.2343235989        1.5930661084      -21.5081836307
 C        -4.9985409592        2.8366369946      -20.9856373665
 O        -4.9202040004        3.2167453326      -19.8628269069
 C        -5.8649140732        3.5522068506      -22.1092733237
 C        -6.6343160033        4.8743830980      -21.6984282608
 C        -7.5661342238        4.7997846609      -20.5282565010
 O        -7.3086622733        5.4995223093      -19.5523378638
 C        -8.9196293853        4.0763379763      -20.5756962196
 C        -8.5989405921        2.6774608891      -19.8969146960
 O        -7.5354713761        2.0822636740      -20.1574457382
 C        -9.7330653695        1.9223034111      -19.1139202641
 C        -9.8141979814        2.4695448948      -17.7176812665
 C        -9.2992948748        1.6778109438      -16.4978259019
 O        -8.1789054916        1.7584740133      -16.0554717114
 C       -10.3497252580        1.0026101073      -15.5698212484
 C       -10.6070012227        2.1132146946      -14.4136688394
 O       -11.2923589157        3.0671481844      -14.6711139757
 C        -9.9911506089        1.8492425880      -12.9569509808
 C       -11.7495107208        0.8793716563      -16.2730313701
 C        -9.6822271475       -0.3127603714      -14.9671076249
 C       -10.1764384419        4.7995790636      -19.9467647824
 C        -9.2515597751        3.7166566401      -22.0750839802
 C        -4.7592807726        0.9000266705      -22.7522402718
 C        -4.1882649261        0.4509379119      -20.4844338299
 C        -0.3636436103        7.4804532133      -20.9594686322
 C         0.8852970762        5.8746964438      -19.3042307051
 C        -6.6622938975        7.8372384385      -17.0305961266
 C        -4.9866952930        9.0963664744      -15.5172448735
 C        -0.5769113095        3.7961561332      -12.3231683463
 C        -0.6146724178        3.8670292939      -14.8756560204
 C        -3.4397206755       -2.5819430977      -13.7406404213
 C        -5.2614228486       -1.9507625617      -12.1948719309
 C        -3.9929233028       -6.8787449054       -7.7504458797
 C        -5.7495220086       -5.5454655888       -6.5904833494
 C        -2.4384066961       -7.0594922526       -0.3194560992
 C        -1.8827874359       -4.5777314838        0.3278801525
 C         4.0588591903       -9.0071128049       -0.8374488364
 C         2.7805232955      -10.4626802292       -2.4909325620
 C        -2.1978330671      -13.3789432314        1.4956530854
 C        -3.5414501901      -11.1528045149        1.7291802615
 C         1.9436919375       -8.0480849636        4.9602685961
 C         0.3590449499       -8.5324567656        6.8272487932
 H        -0.0908837203       -6.1365694774        6.9727522016
 H        -0.7952867152       -4.9496433227        5.7573049716
 H         0.9083105655       -5.2271488430        5.7665945364
 H        -1.7175098203       -9.7020077749        6.1754717437
 H        -0.6342044444      -11.1239374973        5.9329451470
 H        -2.6582875409       -9.8929305622        3.9108750256
 H        -3.0929831737      -11.2754203885        4.8083797373
 H         0.2924022110      -12.8168032913        0.4555492615
 H         0.8914889476      -11.7448749479        1.4779656635
 H         0.3771205678      -11.2003905122       -1.4527989255
 H         1.7938807823      -11.9179444173       -0.8962827359
 H         3.1278702311       -6.4564147104       -1.5849266362
 H         2.4518185594       -6.8251012608       -0.1677502376
 H         0.5027913722       -6.1492428734       -2.5474511540
 H         1.1374909783       -4.8154772068       -1.5689345743
 H        -3.8416640986       -4.9216328645       -2.0589661705
 H        -3.6083141860       -6.5249716874       -2.7527958411
 H        -2.5649249184       -4.3199195789       -4.6316511036
 H        -4.1265507183       -4.0476977739       -4.3813511038
 H        -5.2350475874       -3.8506983239       -8.7510008683
 H        -4.0403546275       -5.0020271931       -9.5784867800
 H        -2.5630310212       -2.5813619797       -9.1498411633
 H        -4.0488743816       -1.9802942393       -9.5279113274
 H        -4.4599552582        0.8047819867      -12.6477925931
 H        -3.3477329868        0.2504271408      -13.8450366732
 H        -1.2925627607        1.1902057158      -12.3576526985
 H        -2.5960523196        2.2349549073      -11.5143134702
 H        -3.4662684601        4.4506021794      -15.1806692454
 H        -2.5465856077        5.9856704435      -15.3991685855
 H        -4.0635881769        7.2444528129      -13.9267697848
 H        -5.0098902126        5.8598061379      -13.8370607271
 H        -2.5227120809        8.5776090178      -16.4343730016
 H        -3.0516434424        9.8756346898      -17.5281452400
 H        -1.0639759857        9.2242206986      -18.4566829628
 H        -2.3011203411        8.4061700291      -19.4528012495
 H        -0.2784180655        3.7202754041      -21.2033511123
 H        -1.7156227104        4.1484211905      -22.1939604457
 H        -2.7520885850        3.0143270352      -19.7649798078
 H        -1.2960508965        2.1149558812      -20.2182708084
 H        -6.5766119344        2.8739465930      -22.6218177775
 H        -5.2703524591        3.7858273408      -23.0000993168
 H        -7.1775910781        5.2477249724      -22.5189615088
 H        -5.8570500797        5.6398764458      -21.4970251586
 H        -9.6009125744        0.8059120542      -19.0430949288
 H       -10.6491327532        2.1590633861      -19.6183981370
 H       -10.8584544079        2.7979852265      -17.4679020043
 H        -9.2955556221        3.3792131544      -17.6497687945
 H       -10.7962990786        2.4301331057      -12.3657754113
 H        -9.0664062746        2.3542825807      -12.7593943358
 H       -10.0085071097        0.8390556724      -12.6975949832
 H       -12.3539418461        0.1907776386      -15.6842769629
 H       -11.7506273734        0.3484191602      -17.2565056068
 H       -12.3626255662        1.7426745782      -16.2684904370
 H        -9.6931095825       -1.1220125016      -15.6857367236
 H       -10.1728400834       -0.6153519444      -13.9856762943
 H        -8.5874854054       -0.1003716453      -14.6695243647
 H       -10.0088767241        5.1821975612      -18.9008212985
 H       -11.0239178402        4.1418961426      -20.1223011067
 H       -10.3621540047        5.8177164134      -20.4855042847
 H        -8.5968205522        2.9243153147      -22.4827259520
 H        -9.0867625437        4.5684056663      -22.8065225485
 H       -10.3369919001        3.5279368616      -22.2644038450
 H        -5.7780421804        0.6667761569      -22.6716089291
 H        -4.1787043356        0.0556950525      -22.9975486420
 H        -4.6073305108        1.5364734053      -23.5880116845
 H        -3.8782178589       -0.4195395941      -21.0271335328
 H        -5.1559881435        0.1580368123      -20.2544811069
 H        -3.6661681653        0.6451923837      -19.5635627069
 H         0.6463717511        7.9152358296      -20.8516934682
 H        -1.2064436371        8.3173662552      -20.9008696428
 H        -0.3576762694        6.9675825440      -22.0014191436
 H         1.0486477567        4.7991367911      -19.2817214040
 H         0.9904463874        6.2081987444      -18.2195901196
 H         1.7245621371        6.2941038797      -19.9158091937
 H        -6.8182586865        7.1293973561      -17.9069554813
 H        -6.9301816060        8.8586125439      -17.2892500620
 H        -7.2540324922        7.5127091269      -16.1561337699
 H        -3.8892378529        9.2101841793      -15.2544409012
 H        -5.4937132684        8.9758741245      -14.6293159863
 H        -5.3012168618       10.0006160486      -15.9177067857
 H         0.2405768783        3.0441099373      -12.2367643881
 H        -1.1371210267        3.5789058339      -11.4098204503
 H        -0.0830101500        4.7685644618      -12.2451794537
 H        -1.2900769392        3.9233257622      -15.6990061010
 H        -0.0746746482        2.9252720975      -14.9408919604
 H         0.1414959462        4.6499415624      -14.9867449582
 H        -2.3568844000       -2.9899144987      -13.8771502519
 H        -3.3611253781       -1.6245133885      -14.2374427725
 H        -4.2048658104       -3.2535973666      -14.1855759891
 H        -5.5396673323       -1.4279179732      -13.0484421280
 H        -5.5857433871       -1.3735103617      -11.3153368053
 H        -5.7276630537       -2.9267240926      -12.1351434065
 H        -4.4494595869       -7.8144993468       -7.3844124268
 H        -2.8722128645       -6.9882939793       -7.8498137602
 H        -4.4235586412       -6.5825841309       -8.7364053090
 H        -6.2147420487       -6.5375382772       -6.4196506372
 H        -6.1623339611       -5.2894412423       -7.5685428707
 H        -5.9593399793       -4.9060947536       -5.6782430425
 H        -2.2074476970       -7.3635464305        0.7597179379
 H        -2.3158261493       -7.8664471924       -1.0150770559
 H        -3.4840936019       -6.8044760489       -0.3078340149
 H        -2.9043407945       -4.3605235140        0.4975704855
 H        -1.4030699731       -3.6918055506       -0.0104762499
 H        -1.6128156727       -4.9312436511        1.3310637872
 H         4.0615230075       -8.2477558215       -0.0490165748
 H         4.6266497841       -8.5786818927       -1.6228905134
 H         4.5660651339       -9.8767975295       -0.4339825526
 H         3.5157492473      -10.1854891156       -3.3187889525
 H         1.7720519922      -10.5920438730       -2.9084451387
 H         3.1460533557      -11.4473974474       -2.2001891481
 H        -2.8926514620      -13.8815360887        2.2100033455
 H        -1.2018842457      -13.8432559374        1.6269366406
 H        -2.5284089448      -13.5842213552        0.4786698442
 H        -3.9433094126      -11.3183514265        0.7003069481
 H        -3.5165604707      -10.0677109464        1.9715967951
 H        -4.2110986815      -11.6516368253        2.4317633686
 H         2.1060368671       -6.9648659093        5.1479764380
 H         2.0696605209       -8.1834926394        3.8870156858
 H         2.6793880274       -8.7387267269        5.3887475520
 H         0.8243505190       -9.5314343757        6.9611265410
 H        -0.6150987555       -8.5517188610        7.3377723506
 H         1.0754651611       -7.9860801637        7.3382417187
 Na       -0.2048454579       -8.3126783065        1.7120795006
 Na       -5.0406502806        5.3519799710      -18.8906104584
