232

 C        -0.0128613932       -5.4894980163        5.4764332229
 C        -0.0060502654       -6.9038090285        4.8365116919
 O        -0.7907091058       -7.1181858110        3.8920774258
 C         0.7622191076       -8.1731397123        5.3970844353
 C         0.0743403270       -9.4531864932        4.8200255176
 O         0.2337542309       -9.6149188838        3.5978776845
 C        -0.8753933714      -10.4439593809        5.5336573403
 C        -1.9110853430      -10.9798939914        4.4760694907
 C        -1.4745717161      -11.9745704519        3.3533527492
 O        -0.6288333166      -12.8771131114        3.4682946772
 C        -2.3100892969      -12.0323640918        1.9743253310
 C        -1.2083432941      -11.2083175299        1.0586453290
 O        -1.4520212813      -10.1107598703        0.7053462997
 C         0.3596460559      -11.7949809719        0.9645516250
 C         1.0076087266      -11.4449414798       -0.3645880365
 C         1.7041377956      -10.0898188692       -0.3028642673
 O         1.6395845634       -9.3365985948        0.6792121629
 C         2.6158452672       -9.5483494571       -1.5076580770
 C         1.8446299114       -8.2966137706       -1.9897442075
 O         0.9450154050       -8.3914156021       -2.7813712314
 C         2.2069891257       -6.8434276514       -1.4419243007
 C         1.0736338873       -5.8519409532       -1.5839431908
 C        -0.1172039800       -6.0004854578       -0.6777665768
 O         0.0603901315       -6.4503920583        0.4579697947
 C        -1.5286950039       -5.5864726717       -1.0274998423
 C        -1.7427986804       -4.9448252072       -2.3920047015
 O        -0.8958421701       -4.4672519675       -3.1004035172
 C        -3.1764254529       -4.9275203489       -3.0133596454
 C        -3.1491759581       -4.5446352264       -4.4361223884
 C        -3.4570049858       -5.7163135609       -5.3924532797
 O        -3.2250423283       -6.8032281955       -5.0160547225
 C        -4.1225663586       -5.5705337324       -6.8451334066
 C        -3.6287770880       -4.3114446015       -7.5493420680
 O        -3.0239023381       -3.3438062513       -7.0509534862
 C        -3.9071857174       -4.2619900856       -9.0863976973
 C        -3.7081161106       -2.9551405878       -9.7252122955
 C        -3.4359304769       -3.1102978258      -11.1573154048
 O        -2.7021524597       -4.0214525266      -11.4967943035
 C        -4.1542614808       -2.1107248783      -12.2195508479
 C        -3.3650400365       -0.7648567685      -12.0103354657
 O        -2.4773495160       -0.8172796178      -11.2403557933
 C        -3.7472305304        0.5258742381      -12.7408629103
 C        -2.6087404580        1.5731673918      -12.4954808627
 C        -2.4160974059        2.7423774192      -13.5934433064
 O        -3.0057531553        2.6208497502      -14.6164424917
 C        -1.3503087916        3.9412643649      -13.3841077884
 C        -2.4246295965        5.1617484921      -13.3643497486
 O        -2.7398248447        5.6352952890      -12.3097886259
 C        -2.9435996009        5.6319462236      -14.7877095478
 C        -4.1720863322        6.4896728940      -14.6090985688
 C        -4.9181729801        6.6872211339      -15.9735175782
 O        -5.2101093984        5.6575030509      -16.5439844206
 C        -5.1633590354        8.1224152098      -16.6461902660
 C        -3.8635379109        8.1294034348      -17.6187088138
 O        -4.0883609496        7.6598353532      -18.7291066711
 C        -2.5375665401        8.6840511883      -17.0782713967
 C        -1.5368978331        8.4804916507      -18.3109791062
 C        -1.1546674419        7.0203298671      -18.5186320756
 O        -1.2812370481        6.2922833426      -17.5497525978
 C        -0.4639906364        6.4008768973      -19.8093997649
 C        -1.5864977366        5.2030746623      -20.3923409014
 O        -2.7474074152        5.3704990420      -20.0882273137
 C        -1.1117701318        3.8575787093      -21.0120031839
 C        -1.9605201352        2.6003094538      -20.4322840291
 C        -2.7737258856        2.0459152977      -21.5882310320
 O        -2.3143152208        1.6482908165      -22.6525608610
 C        -4.2812322046        1.6339748239      -21.1882952786
 C        -4.9988232600        2.9259058364      -20.8435737601
 O        -4.8367472305        3.3342933859      -19.7235582125
 C        -5.9737592952        3.5062960751      -21.8242691154
 C        -6.6585053601        4.8056076092      -21.3219744494
 C        -7.7915713844        4.7838031276      -20.3031568434
 O        -7.5468601646        5.2736847653      -19.2293376778
 C        -9.0855836388        3.9320335636      -20.4568944540
 C        -8.6839976094        2.5231369112      -19.7918477231
 O        -7.5697795249        1.9965788690      -19.9571111105
 C        -9.8519150831        1.9848381110      -19.0001731490
 C       -10.0002672524        2.5064133890      -17.5438960905
 C        -9.5076044032        1.4609408140      -16.6781871346
 O        -8.3094860509        1.1661498764      -16.6110398649
 C       -10.5742863280        0.8700898587      -15.7222013531
 C       -10.5676180916        1.9470693096      -14.6195918369
 O       -10.9270144537        3.0942147324      -14.7635416870
 C       -10.1498640075        1.5161273466      -13.1112896190
 C       -11.9334040337        0.6906206655      -16.3789104903
 C        -9.9889108311       -0.5716063349      -15.2908530780
 C       -10.1827769210        4.7504919000      -19.6660666036
 C        -9.6073671907        3.7821028536      -21.9266955459
 C        -4.7951179902        0.8442886078      -22.3990598508
 C        -4.3236133948        0.6865476959      -20.0424645896
 C        -0.3391899192        7.3834588950      -21.0425106353
 C         0.8557316513        5.6326270821      -19.3032635428
 C        -6.5131292235        8.2054508386      -17.4331387759
 C        -5.2119961998        9.1806825802      -15.4724249851
 C        -0.5542989556        3.8399835104      -12.1445297874
 C        -0.3722590011        3.9274905683      -14.6366403577
 C        -3.8315787173       -2.5542511784      -13.6922573857
 C        -5.6941729515       -1.9420661999      -12.0238980166
 C        -3.5973290341       -6.8547782301       -7.6947564541
 C        -5.6631712933       -5.5896655664       -6.7933504374
 C        -2.3647421860       -6.9214171164       -0.9195193393
 C        -2.1649212266       -4.5038405775       -0.0020767555
 C         3.9678124597       -9.2280950890       -0.8684154109
 C         2.8580475557      -10.4008071476       -2.7433664057
 C        -2.4138957200      -13.5694737805        1.5215100261
 C        -3.6853419276      -11.3030030520        1.9743806412
 C         2.3111773864       -8.2328013819        5.0482487086
 C         0.7971019839       -8.0263684080        6.9217581669
 H        -0.6872024393       -5.4665447962        6.3071175693
 H        -0.4678605987       -4.7174104295        4.8273616582
 H         0.9500891510       -5.1880505863        5.7385319420
 H        -1.3059872548       -9.9567583772        6.3658925855
 H        -0.4660841340      -11.3587529598        5.8293874834
 H        -2.4672465867      -10.1537850303        4.0979947478
 H        -2.7359571425      -11.5966591847        5.0225791196
 H         0.4419405732      -12.8410457760        1.2454684387
 H         1.0138852850      -11.3318404585        1.7369500314
 H         0.2415590393      -11.4189368271       -1.2213380089
 H         1.7918998755      -12.2027647162       -0.6106118367
 H         3.1600512645       -6.4643350475       -1.8243656103
 H         2.6009415004       -6.8985256819       -0.4244693854
 H         0.8230325936       -5.8268114817       -2.6802677216
 H         1.5205312192       -4.8724850966       -1.3861324879
 H        -3.8689415611       -4.3803774515       -2.4522401002
 H        -3.5524730012       -6.0216619873       -3.1443479121
 H        -2.1308214305       -4.1338576892       -4.6192843325
 H        -3.6716397665       -3.5918325717       -4.6099782166
 H        -4.9883080877       -4.4744268571       -9.2821880869
 H        -3.2630465343       -4.9942099294       -9.6121772301
 H        -2.9238795518       -2.3615030581       -9.1502311919
 H        -4.6428822500       -2.3554921662       -9.5777336804
 H        -4.7561641633        0.8772203868      -12.4892173852
 H        -3.8509005574        0.3908277693      -13.8181980823
 H        -1.6041277548        1.1583708780      -12.4779412399
 H        -2.7480645125        2.0106110795      -11.5882115715
 H        -3.2489832767        4.6991479377      -15.2362813414
 H        -2.1802240263        6.1116051331      -15.4616993001
 H        -3.9540694300        7.4202988265      -14.0973664723
 H        -4.8312700507        5.9707081669      -13.8247177027
 H        -2.3041776985        8.1490795456      -16.1217339424
 H        -2.8061076082        9.7843045860      -16.9480921216
 H        -0.5783466537        9.1049844790      -18.1882730162
 H        -2.0357345488        8.8931920439      -19.1560160262
 H        -0.0818666014        3.6532690444      -20.8653839683
 H        -1.3940998752        3.8905816690      -22.0074865832
 H        -2.3469879665        3.0286110687      -19.4958728837
 H        -1.3253744073        1.7697107231      -20.1343588139
 H        -6.6557104648        2.8088800554      -22.1769142185
 H        -5.5295128128        3.6634611554      -22.8141718520
 H        -7.0100648138        5.3853693837      -22.2516824131
 H        -5.8554657174        5.4806763727      -20.9769445804
 H        -9.6953722022        0.8055432579      -18.9539269178
 H       -10.7397410068        2.1468185241      -19.5426476509
 H       -11.0050935534        2.9497037253      -17.3109129335
 H        -9.3606336704        3.3810084649      -17.4217935096
 H       -10.4417110188        2.4020604923      -12.4048459103
 H        -9.1176708639        1.2645150259      -13.0691703507
 H       -10.7502110259        0.6558694305      -12.7577123972
 H       -12.7686831643        0.3753240222      -15.7919167822
 H       -11.8278696601       -0.0412731157      -17.2410031063
 H       -12.2835785029        1.5941128254      -16.7780047660
 H        -9.6882620446       -0.9881322032      -16.2148983698
 H       -10.6726304871       -1.2176148129      -14.8495638105
 H        -9.1652398007       -0.5829889672      -14.6154990139
 H        -9.8850361715        5.2495596025      -18.7280248507
 H       -11.0420098560        4.2212395508      -19.5715530606
 H       -10.3141029255        5.6347162661      -20.3037596746
 H        -8.8496047997        3.4828222253      -22.5833743325
 H        -9.8968272531        4.7590142433      -22.3733957043
 H       -10.3541486385        2.9826930099      -22.0275647920
 H        -5.8308696725        0.4410043957      -22.2309610628
 H        -4.1322834602       -0.0433755150      -22.4335989741
 H        -4.7906779366        1.3189145424      -23.4217498226
 H        -3.6714625902       -0.2141769992      -20.1813988668
 H        -5.3051187199        0.3290089233      -19.8835572241
 H        -4.1169428088        1.2582353405      -19.0830267509
 H        -0.2734760513        8.3723227189      -20.7013465817
 H        -1.1272318597        7.3675369175      -21.8501163478
 H         0.5951535960        7.1550729198      -21.5718988392
 H         0.8652446521        5.5075533218      -18.2514616839
 H         1.8657622385        5.9184207477      -19.6403069914
 H         0.6955794899        4.6524433138      -19.6317847795
 H        -6.4036577391        7.4640460047      -18.2674556035
 H        -6.7577508675        9.2533874344      -17.6514626234
 H        -7.4019378679        7.9780202802      -16.8372988222
 H        -4.3869717239        9.2832752979      -14.6932118672
 H        -6.0363524434        8.9651662836      -14.8350213115
 H        -5.3782289890       10.1793238271      -15.8802899477
 H        -0.1579143620        2.8553151765      -12.1021992414
 H        -1.0217182416        3.9571458108      -11.1995153683
 H         0.2750483041        4.5460844460      -12.1624163111
 H        -0.9147358229        3.6100921187      -15.5058443637
 H         0.5937107564        3.4100045011      -14.5563274605
 H        -0.2250554792        5.0107151542      -14.8749573265
 H        -2.8159626490       -2.1781181506      -13.9694922984
 H        -4.5088446235       -2.0826913774      -14.3827150923
 H        -3.8203343036       -3.5961706280      -13.7632863455
 H        -6.0395250662       -1.1550217092      -12.6931322822
 H        -5.8726508408       -1.7652076537      -10.9619029544
 H        -6.2618284425       -2.9170671090      -12.1880398343
 H        -3.4916362336       -7.7128797319       -7.0986087357
 H        -2.5742768030       -6.5790627785       -7.8643714311
 H        -4.1289275631       -6.9146186605       -8.5962227704
 H        -5.9380418356       -6.3312146594       -6.0757756774
 H        -6.1083780049       -5.8380857050       -7.6991667504
 H        -5.9292579177       -4.6991602807       -6.2774518301
 H        -2.0913930896       -7.3146273627        0.0997284791
 H        -2.0819554440       -7.5517969847       -1.7027010421
 H        -3.4364524463       -6.8025274785       -0.8989266863
 H        -3.2070551596       -4.1012555035       -0.1485275303
 H        -1.5140741282       -3.5952856494       -0.0212298791
 H        -2.1503579914       -4.9928116908        0.9569208974
 H         3.8882530214       -8.9634398740        0.2447912045
 H         4.5722526044       -8.4184540073       -1.2995153172
 H         4.5949337985      -10.0740793105       -0.8900280451
 H         3.6032558519       -9.9461886918       -3.4257795433
 H         1.9390252364      -10.5968784578       -3.1819319907
 H         3.2248993726      -11.3762549212       -2.5165400090
 H        -3.2663288690      -14.0723048097        2.0277629612
 H        -1.5959657768      -14.2059611490        1.7296054441
 H        -2.6062779600      -13.5192906414        0.5041768588
 H        -4.1902843580      -11.5476672066        1.0793627547
 H        -3.5939200486      -10.2409478180        2.1491611710
 H        -4.2728721670      -11.7446192809        2.7584304155
 H         2.8885371426       -7.3719022939        5.4268802466
 H         2.4422001458       -8.3087670663        4.0119161035
 H         2.7306742686       -9.1684434107        5.4637350028
 H         1.3982050463       -8.8683057432        7.4055298740
 H        -0.2491568432       -7.9022766649        7.2812131388
 H         1.3291323136       -7.1193769629        7.2591390015
 Na       -0.2687874539       -8.2466664129        1.7509591785
 Na       -5.2287737923        5.3108708287      -18.8726281540
