232

 C         0.0145463555       -5.6331489607        5.3955552560
 C        -0.0096990444       -6.9391765452        4.7184623569
 O        -0.8348799123       -7.1455906588        3.7923245040
 C         0.8747671188       -8.1370708433        5.4078350587
 C         0.1165057078       -9.4436375818        4.8072920979
 O         0.3609762382       -9.7111760978        3.6190862264
 C        -0.7279392523      -10.4612165256        5.5365693906
 C        -1.8905445650      -11.0882171157        4.6122724698
 C        -1.5259863803      -12.1331722289        3.4901090235
 O        -0.6940038587      -12.9614017193        3.7231594798
 C        -2.1522189512      -12.0427766489        1.9818336410
 C        -1.1965960980      -11.2593731612        1.1760795944
 O        -1.5276547454      -10.0894354064        0.8346397470
 C         0.1669220823      -11.7785880136        0.8827889012
 C         1.0127716333      -11.4109879387       -0.3823165611
 C         1.7283177447      -10.0490191130       -0.3081313961
 O         1.5100738373       -9.3346668727        0.6624635021
 C         2.6450456664       -9.5320684128       -1.4485881498
 C         1.8223455324       -8.2668096370       -1.9679505333
 O         0.8539057630       -8.4783890258       -2.6686152715
 C         2.1256173156       -6.9013180153       -1.3582547371
 C         1.0711929247       -5.8235853237       -1.6748559043
 C        -0.0707652643       -5.9755378214       -0.6944377866
 O         0.0517400858       -6.4521364635        0.4389416261
 C        -1.4864195140       -5.5856640823       -1.1456766553
 C        -1.7254114410       -4.8193170920       -2.5686737950
 O        -0.7685279694       -4.3860817309       -3.1664640144
 C        -3.1827658343       -4.7030757361       -3.0545715454
 C        -3.2543356840       -4.3838895509       -4.6576312436
 C        -3.3499269252       -5.6933144764       -5.3921363474
 O        -3.0395964080       -6.7863499709       -4.9295853063
 C        -3.9343551925       -5.5876772090       -6.8643346944
 C        -3.5695679609       -4.2719138493       -7.5949686582
 O        -3.0518349287       -3.3904538346       -7.0354125330
 C        -3.8914571894       -4.3455082269       -9.0648930772
 C        -3.9165116392       -2.9616281444       -9.7257628150
 C        -3.5385547058       -3.0893610368      -11.2541682723
 O        -2.6773403959       -3.9033044619      -11.6076803100
 C        -4.1705906645       -2.0276582636      -12.2599683359
 C        -3.4096349467       -0.7166664473      -12.0016559847
 O        -2.4295480150       -0.6920371500      -11.2813873227
 C        -3.7704330525        0.6179902451      -12.8206695580
 C        -2.6247122097        1.6382489717      -12.5022210798
 C        -2.4042038173        2.6903605651      -13.5853091041
 O        -2.9785256163        2.6632192054      -14.6803521199
 C        -1.3811174733        3.9097586449      -13.3471010846
 C        -2.2969857467        5.1181093741      -13.3411606137
 O        -2.7914336440        5.5871263642      -12.3412658629
 C        -2.9400576041        5.6411867660      -14.6735958968
 C        -4.1825474391        6.5414350090      -14.6180925145
 C        -4.9386047423        6.6976552294      -15.9143688485
 O        -5.2819747844        5.7667156345      -16.6287046170
 C        -5.1008780214        8.0671706947      -16.6368120168
 C        -3.9062745126        8.2181269058      -17.5959917451
 O        -3.9737070576        7.8019850980      -18.7638231759
 C        -2.5732265001        8.7847269591      -17.2150408622
 C        -1.5116059342        8.5297959450      -18.3002386055
 C        -1.1214853468        6.9880225930      -18.4479949044
 O        -1.1546093239        6.2151061176      -17.4965850775
 C        -0.6202293186        6.2195144682      -19.8000760453
 C        -1.5966914099        5.1031214748      -20.2206922814
 O        -2.7781342487        5.3162045045      -20.1837112510
 C        -1.1528895433        3.8296711133      -20.9751290419
 C        -1.9252139248        2.6204935637      -20.3925045290
 C        -2.7322500039        1.8234702286      -21.4670356222
 O        -2.3701182158        1.8009263954      -22.6152205543
 C        -4.2632805961        1.4970174253      -21.0998118534
 C        -4.9819492789        2.9574269492      -20.7796229571
 O        -4.7369492157        3.4269848420      -19.7074225990
 C        -5.8884818670        3.6524862748      -21.8402138233
 C        -6.7331054013        4.9441113108      -21.4415521023
 C        -7.6740660201        4.7125975877      -20.2426569201
 O        -7.4776218879        5.2077437054      -19.1338057646
 C        -9.0826735258        4.0327204794      -20.4188191392
 C        -8.9279406114        2.5718246099      -19.8345985892
 O        -7.8523250713        2.0131222414      -19.9462203025
 C       -10.0970999406        1.9671195010      -19.0941158543
 C        -9.9750846692        2.4679143332      -17.6461077768
 C        -9.4699435579        1.3537603366      -16.6472711785
 O        -8.3864586781        0.8571022408      -16.6628847262
 C       -10.5942012471        0.7552575483      -15.7288637925
 C       -10.7084686676        1.7898331827      -14.5438111273
 O       -10.8329968982        2.9318949356      -14.8671734036
 C       -10.1967447896        1.3832541949      -13.1076085288
 C       -11.9371094109        0.7258904982      -16.3802080507
 C       -10.1182881643       -0.6486251201      -15.1666218256
 C       -10.2111586782        4.7843520020      -19.6728243767
 C        -9.5413597617        3.7368879458      -21.8115015022
 C        -4.8883995562        0.6748439594      -22.3545034771
 C        -4.2753765887        0.7015461622      -19.8172834513
 C        -0.2939793010        7.2450888302      -20.9345161458
 C         0.8230814798        5.7873008869      -19.3617711837
 C        -6.3420034246        8.2319608170      -17.4746029346
 C        -5.1887752201        9.2924735666      -15.6049008199
 C        -0.6427819008        3.7889998869      -11.9918174646
 C        -0.3968276675        3.8798632885      -14.5516585213
 C        -4.0610092699       -2.3977990796      -13.8253527832
 C        -5.6705006764       -1.8877599300      -11.9851604415
 C        -3.5654119885       -6.8220279864       -7.7650158421
 C        -5.5269615170       -5.5707390087       -6.8381477479
 C        -2.3047306715       -6.9202607959       -1.0491595581
 C        -2.0486958772       -4.5669521409       -0.1549794224
 C         4.0913733389       -9.1374990060       -0.9694885649
 C         2.6714884877      -10.5261674980       -2.6664530232
 C        -2.4170176687      -13.4208170943        1.4170096233
 C        -3.4772598341      -11.4183318076        2.0989116089
 C         2.4623422763       -8.2947327298        5.0308838214
 C         0.7735020757       -7.8918920248        6.9539112349
 H        -0.8205686954       -5.4897275121        6.1178447679
 H        -0.2013019596       -4.8041008023        4.6943466831
 H         0.9650677952       -5.5283653733        5.8376349727
 H        -1.1101060174      -10.0517426183        6.4559902741
 H        -0.1643926486      -11.3267100279        5.7538649510
 H        -2.5084133454      -10.2463310901        4.3195590482
 H        -2.5757352793      -11.6337157068        5.2838821192
 H         0.0521940159      -12.7830387367        0.9051086646
 H         0.7555662725      -11.6053755149        1.7414300228
 H         0.3706570627      -11.4124204607       -1.2408446387
 H         1.7581551878      -12.2153194904       -0.4795580500
 H         3.1405696392       -6.6559380273       -1.5794441170
 H         2.3431347245       -7.0728425416       -0.3159570752
 H         0.7581905786       -6.0095623121       -2.7264168963
 H         1.5004667512       -4.8023372593       -1.6757096763
 H        -3.4672474124       -3.8454358448       -2.4731578990
 H        -3.8115738236       -5.5245438136       -2.8299759457
 H        -2.2461722082       -3.9278674819       -4.8629233002
 H        -3.8498305703       -3.5274473108       -4.9502977509
 H        -4.8037404384       -4.9318173596       -9.2656587167
 H        -3.0164087872       -4.9062697543       -9.5056451836
 H        -3.0225099144       -2.4296197538       -9.2447981401
 H        -4.8149789141       -2.3111407912       -9.4157177475
 H        -4.8150891676        0.9849168706      -12.5706812472
 H        -3.8565156165        0.4734290500      -13.8702637648
 H        -1.5544196784        1.2632257356      -12.3375196763
 H        -2.8798267222        2.2446836553      -11.5593832641
 H        -3.2690771759        4.7997873900      -15.2639411537
 H        -2.1872599124        6.1246252319      -15.2809383721
 H        -3.9933884511        7.5844143456      -14.2389897610
 H        -4.8771867273        6.1757434890      -13.9093291043
 H        -2.2351488410        8.1815071552      -16.3316304112
 H        -2.6942645809        9.8821491623      -17.0158802154
 H        -0.5998213301        9.0533172535      -17.9085786426
 H        -1.7344462991        8.9958160457      -19.2958361690
 H        -0.1395534114        3.5916202780      -20.8642223334
 H        -1.5467572417        4.0065985350      -21.9787163017
 H        -2.4423144488        3.1425078042      -19.5981716467
 H        -1.1875105308        2.0531713829      -19.7637414419
 H        -6.5108129941        3.0176238448      -22.4714006725
 H        -5.2356548402        3.9158245948      -22.6211012725
 H        -7.3892062475        5.1783330725      -22.2666960413
 H        -6.0613127437        5.8576986988      -21.3919494126
 H       -10.0495984294        0.8881667125      -19.2105008225
 H       -11.0964140861        2.2688863640      -19.5215490017
 H       -10.8545393974        3.1067106463      -17.3702572532
 H        -9.1816453791        3.1946488025      -17.7160337018
 H       -10.1530147535        2.2329688412      -12.4062583926
 H        -9.2517812352        0.7933655550      -13.2246174972
 H       -10.9556828544        0.7363961110      -12.7148850075
 H       -12.6811994819        0.1593332305      -15.8033489710
 H       -11.9361031717        0.2753938945      -17.3870435151
 H       -12.3558610775        1.7464213270      -16.4764717943
 H        -9.7277072795       -1.2309698424      -15.9193744559
 H       -10.8346939741       -1.2716828797      -14.6403191390
 H        -9.3171518487       -0.5401106504      -14.4434495180
 H        -9.9865938972        4.7795645483      -18.6222503669
 H       -11.2190931226        4.2141389016      -19.8218668196
 H       -10.2808782548        5.9102911590      -19.8807042204
 H        -8.7367226192        3.3083784223      -22.4862313264
 H        -9.8922843735        4.6164982310      -22.3581144525
 H       -10.2056934495        2.8794148228      -21.7601681120
 H        -5.9209844338        0.4170163215      -22.2055113739
 H        -4.3506321754       -0.2660024745      -22.4857019411
 H        -4.8437621911        1.2392716599      -23.2760438199
 H        -3.4807401046       -0.0390215747      -19.9011423015
 H        -5.1984182308        0.1667845895      -19.7158362819
 H        -4.1863413213        1.2502128316      -18.9273499016
 H        -0.1148089089        8.2824138293      -20.5199828737
 H        -1.1257577326        7.3248137821      -21.7474001810
 H         0.6492069360        6.8766204681      -21.5846926940
 H         1.0729246987        6.0985222628      -18.3822282133
 H         1.6407122980        5.9508301020      -20.0601179830
 H         0.7503831516        4.6667969715      -19.3066512978
 H        -6.4701011756        7.4315006932      -18.2722526967
 H        -6.3233049520        9.2555668816      -17.7695073227
 H        -7.2644665077        8.3583818289      -16.8555333070
 H        -4.5421966544        9.2696745934      -14.7066629018
 H        -6.1032787614        9.3251400937      -15.1298864911
 H        -5.0306617327       10.1995311931      -16.0702686024
 H        -0.3451651801        2.7824769618      -11.6853340357
 H        -1.2336849455        4.1560810935      -11.1720252882
 H         0.1790251812        4.4417734011      -11.9615162715
 H        -0.7959729116        3.5089594676      -15.4887745069
 H         0.4331586375        3.2250622066      -14.2521617237
 H        -0.0265299888        4.8800365415      -14.7786833584
 H        -3.1561489768       -1.9111644903      -14.3260901350
 H        -4.9330506648       -2.0392086473      -14.3348077717
 H        -3.9664332198       -3.5544747944      -13.9345927774
 H        -6.0965358151       -1.1764822924      -12.6078539302
 H        -5.9366823413       -1.9116083202      -10.9238518523
 H        -6.0485709908       -2.8415771624      -12.2987824684
 H        -3.4234602301       -7.6891067402       -7.1801263395
 H        -2.5708106582       -6.6257532703       -8.1228515902
 H        -4.2779456839       -6.8486086255       -8.5671921628
 H        -5.9052007148       -6.1238035826       -5.9969181461
 H        -5.8990040618       -6.0190480981       -7.7525199242
 H        -5.8461372761       -4.5413975507       -6.6274761368
 H        -1.9497926226       -7.4290741840       -0.1413974376
 H        -1.9995684078       -7.4227120579       -1.9482405977
 H        -3.3442715165       -6.8743626288       -1.0106406417
 H        -2.9866273006       -4.1039467883       -0.3295490387
 H        -1.3569666479       -3.7493218284       -0.0996189538
 H        -2.0539656848       -5.1281394257        0.8556780501
 H         4.1988046068       -8.4726830792       -0.1645894873
 H         4.7157535838       -8.7990587209       -1.7449739519
 H         4.6287628440      -10.0826971005       -0.6491082491
 H         3.2723723987      -10.1466593080       -3.5145946686
 H         1.6164242234      -10.7898607648       -2.9468386747
 H         3.0696291859      -11.5015682377       -2.4205699213
 H        -3.2220441833      -13.8086270318        1.9484029152
 H        -1.6631776983      -14.1554390056        1.5461716132
 H        -2.7162749031      -13.2886743510        0.3989491206
 H        -4.0643195356      -11.4846471840        1.1783318097
 H        -3.3348014397      -10.4246091570        2.4598233302
 H        -3.9984821091      -12.0031978254        2.8135057633
 H         3.1612287874       -7.6333059305        5.5518212636
 H         2.4192960927       -8.0353775556        3.9887791344
 H         2.8797577941       -9.2712264864        5.1333605010
 H         1.4717858267       -8.6486493200        7.3394978250
 H        -0.3021708573       -7.9712628624        7.3454909400
 H         1.1125618067       -6.9367961733        7.3539729657
 Na       -0.2730335147       -8.2836469616        1.7198612386
 Na       -5.2777829475        5.4856101483      -18.8292643810
