232

 C         0.1820217926       -5.6917072113        5.2033822223
 C        -0.0644178639       -7.0731662236        4.6482738664
 O        -0.5194390535       -7.2011528330        3.5221555109
 C         0.7628476989       -8.2569901050        5.2751893767
 C         0.2624441288       -9.5892208798        4.6528259086
 O         0.5362481611       -9.9679472538        3.5149303455
 C        -0.4744197538      -10.6106566937        5.5053838349
 C        -1.7388662146      -11.1101978670        4.7875324753
 C        -1.4550726322      -12.1972960565        3.7498905767
 O        -0.7305289875      -13.1617015820        4.0217832197
 C        -2.0060603739      -11.9677179237        2.3088123139
 C        -1.1100260581      -11.1747351612        1.3799034219
 O        -1.4595666199      -10.1036349971        1.0131662951
 C         0.1065150402      -11.8371544172        0.9038274283
 C         0.7511240659      -11.1820702576       -0.3147081482
 C         1.6645594961       -9.9984832647       -0.1610087258
 O         1.6532135974       -9.1961591482        0.7594366316
 C         2.5633663104       -9.6263912227       -1.5100876021
 C         1.7374107428       -8.3624026551       -1.9131722063
 O         0.7104396866       -8.4357729717       -2.5298357677
 C         2.1901880777       -6.9639598714       -1.4391946648
 C         1.1331517795       -5.9145059047       -1.8424026322
 C        -0.0712332762       -6.0185783449       -0.9343854876
 O         0.0713393430       -6.3115476085        0.2612678084
 C        -1.5304186920       -5.5580889633       -1.3843321758
 C        -1.5629147266       -4.6400588729       -2.6616273644
 O        -0.5405730720       -4.3632496275       -3.2086498288
 C        -3.0641219552       -4.1902600656       -3.0439464551
 C        -3.3948532331       -4.3267616852       -4.6155954969
 C        -3.2283433894       -5.6301458432       -5.3686563047
 O        -2.7474352301       -6.6453056809       -4.9553898499
 C        -3.7890305219       -5.6507429922       -6.9207339169
 C        -3.4872689608       -4.3523365900       -7.8268726469
 O        -3.0797601171       -3.2671648498       -7.3348208368
 C        -3.6748354653       -4.4181869032       -9.3725903493
 C        -3.9310442671       -2.9863958486       -9.9281187392
 C        -3.6532188992       -2.9926971944      -11.3791549502
 O        -2.8836617178       -3.6772264684      -12.0008020059
 C        -4.3176114576       -1.8085993419      -12.3219197682
 C        -3.4575791391       -0.5337977575      -12.0479036982
 O        -2.5414797214       -0.6364624173      -11.2894465763
 C        -3.7288517576        0.6843214433      -12.8565726301
 C        -2.8285921988        1.7889584936      -12.4712588012
 C        -2.4886508371        2.7091529876      -13.6363419912
 O        -2.9104650905        2.5013608863      -14.7231101643
 C        -1.4963203559        3.9157221853      -13.3177258522
 C        -2.4723160890        5.1725071556      -13.3843669565
 O        -2.8861025479        5.6467123976      -12.3519789334
 C        -2.9050789864        5.5827145592      -14.7053244763
 C        -4.1077460567        6.6274355244      -14.4993549212
 C        -4.8165027428        6.8549667708      -15.9595951838
 O        -5.2557860834        5.8814648493      -16.5622638890
 C        -4.9187988067        8.1962761854      -16.6439365557
 C        -3.7770913939        8.2006503806      -17.7442649616
 O        -3.9376490099        7.7773093964      -18.8421115964
 C        -2.4647934773        8.8414813555      -17.4181158582
 C        -1.3390558947        8.4263476669      -18.3959928436
 C        -1.0273364174        6.8595816045      -18.3118338525
 O        -1.2336328378        6.2337156996      -17.3033690434
 C        -0.6610854029        6.2021235357      -19.6643176761
 C        -1.6449877588        5.1230711396      -20.0645523087
 O        -2.8200569245        5.4713807450      -20.0999732749
 C        -1.0645489589        3.8390144548      -20.6802874922
 C        -1.8691791162        2.5299452321      -20.2664701783
 C        -2.8375222862        2.0254787047      -21.3307198840
 O        -2.6098886417        1.9465811413      -22.5085657072
 C        -4.3576013613        1.6304608565      -20.9676428378
 C        -5.0123345619        2.9941821528      -20.6391158654
 O        -4.8026209485        3.6480865544      -19.6007805497
 C        -5.8052840793        3.5482679758      -21.8069245267
 C        -6.6429430711        4.7284302289      -21.4444642432
 C        -7.6601057517        4.5804947006      -20.2894502888
 O        -7.4303643049        5.0240639707      -19.2018620966
 C        -9.1166046732        4.0283217791      -20.4457332825
 C        -9.1079355080        2.5433207606      -19.9017538584
 O        -8.1479932070        1.8050571552      -20.1549890499
 C       -10.3040467136        2.0565821781      -18.9561115660
 C        -9.8624250253        2.2120625381      -17.4027251311
 C        -9.5393206749        0.8949802349      -16.6685523244
 O        -8.4838945386        0.2929566413      -16.7980564806
 C       -10.6194664593        0.4679646487      -15.6397652506
 C       -10.6487924172        1.6612645542      -14.5305784451
 O       -10.8592152518        2.8400029041      -14.7759718422
 C       -10.4098567442        1.2158154113      -13.0741900922
 C       -12.0905545762        0.5564499967      -16.2674533908
 C       -10.4332114935       -0.9491312731      -15.1665544603
 C       -10.1209142884        5.0713803073      -19.8329140248
 C        -9.4702172329        3.9593118741      -22.0129328690
 C        -5.0072112732        0.7470448997      -21.9727167970
 C        -4.2797614340        0.7928865271      -19.6887692974
 C        -0.6145438597        7.1829371226      -20.8799800159
 C         0.7662480072        5.6148762934      -19.3679258135
 C        -6.3805555991        8.2969828600      -17.3849108291
 C        -4.8131057054        9.4286142166      -15.7993276929
 C        -0.9088088559        3.8094866404      -11.9456601416
 C        -0.3354885116        3.9595313319      -14.3580708892
 C        -4.1269512351       -2.2709663522      -13.7699579452
 C        -5.7927697946       -1.5118540401      -11.9745803211
 C        -3.3504923339       -6.9939903800       -7.5531849185
 C        -5.2584855582       -5.6227832054       -6.6311017463
 C        -2.4421244669       -6.7939793677       -1.4920500479
 C        -2.0664535441       -4.6798278125       -0.2064146523
 C         3.9841000371       -9.3227859989       -1.1387944746
 C         2.5733847782      -10.7192397172       -2.5513048631
 C        -2.2177511335      -13.3664519104        1.6642463308
 C        -3.3876282184      -11.3448413977        2.3772766022
 C         2.2289171106       -7.9754212065        4.8015173688
 C         0.5385598017       -8.3731448024        6.9434505671
 H        -0.5212314034       -5.4423836956        6.0021377288
 H        -0.1218076714       -4.9539087229        4.4329397228
 H         1.2019571949       -5.5913310822        5.5986023403
 H        -0.8293203262      -10.2588443468        6.5161502164
 H         0.2709227570      -11.4745699099        5.6502436359
 H        -2.1918977683      -10.1920219643        4.4729021907
 H        -2.4471993200      -11.4396863013        5.5436158279
 H        -0.0770053936      -12.9622699835        0.6761219721
 H         0.8490729128      -11.8113823374        1.7861482853
 H        -0.0241742880      -10.9837934925       -1.0725085917
 H         1.4592865716      -11.9173147019       -0.6281415519
 H         3.2602375227       -6.7361338317       -1.6473101445
 H         2.2995253668       -6.9657879325       -0.3416726350
 H         0.9880467959       -5.9212366129       -2.9186499939
 H         1.6031777010       -4.9715373371       -1.5649279978
 H        -3.3038591249       -3.1508353601       -2.7508868582
 H        -3.8207922676       -4.8720121531       -2.5417494979
 H        -2.9703266180       -3.4917000430       -5.1024412094
 H        -4.4303156434       -3.9330221038       -4.6407827191
 H        -4.3896949906       -5.1656026571       -9.7516263387
 H        -2.7063062280       -4.8017204309       -9.7267193485
 H        -3.2606939557       -2.2855978715       -9.5098726635
 H        -4.9129740682       -2.6773080748       -9.7218380436
 H        -4.7707634886        0.8783706399      -12.7776958791
 H        -3.6271340997        0.3533808439      -13.9418278605
 H        -1.8908937154        1.4308399016      -12.0611297212
 H        -3.3155294206        2.2960039782      -11.6744023058
 H        -3.3562114853        4.7498292632      -15.3070524907
 H        -2.0433299144        5.9125068710      -15.3429105749
 H        -3.8180338138        7.5222236369      -14.0235296376
 H        -4.9378312840        6.1119089945      -13.9125528948
 H        -2.2133477727        8.4858949844      -16.4541272732
 H        -2.6494084601        9.8838271255      -17.4461150277
 H        -0.4404643827        9.0253359604      -18.2948944777
 H        -1.6863581472        8.6391615904      -19.3653940082
 H        -0.0433892211        3.6414351635      -20.2274871849
 H        -1.1653434315        3.8943356503      -21.7762661728
 H        -2.2991044840        2.8019603911      -19.2962466086
 H        -1.1185577237        1.8447445594      -19.9822344241
 H        -6.4546297829        2.7367606059      -22.2010383315
 H        -5.2129695993        3.7362923897      -22.7695864253
 H        -7.1558734112        5.1738158441      -22.3150164430
 H        -5.9415629689        5.4413503660      -21.1118198371
 H       -10.4847165102        0.9789581337      -19.2358372979
 H       -11.2011353581        2.5463474054      -19.1668556409
 H       -10.7258206148        2.5701678298      -16.8942792806
 H        -9.1090573492        3.0163907656      -17.3901824330
 H       -10.3792142331        2.2230959677      -12.5903003043
 H        -9.4953336250        0.7642018121      -12.9784223294
 H       -11.2049560762        0.7486729382      -12.5048781515
 H       -12.7551067517       -0.1872284031      -15.8294124618
 H       -12.1419356556        0.4194224626      -17.3667161612
 H       -12.5546296603        1.5197006138      -16.1108074168
 H       -10.8945703028       -1.7439489929      -15.8611468504
 H       -10.8837757434       -1.1382955896      -14.1625295643
 H        -9.3541864169       -1.2537744598      -15.0244202126
 H       -10.0958574535        5.1755458079      -18.6992819078
 H       -11.0759391483        4.8193174814      -20.1134161283
 H        -9.8901423399        6.0380903435      -20.2792004228
 H        -8.9890065292        3.1663472434      -22.5403245807
 H        -9.1515600533        4.9262730484      -22.4590143313
 H       -10.5254273455        3.6638787967      -22.1636768815
 H        -6.0372978771        0.5745545988      -21.7354899107
 H        -4.5483871734       -0.1995618623      -21.9313244620
 H        -4.9285869533        1.1580425455      -22.9492931572
 H        -3.4792616001        0.0611210282      -19.7173127393
 H        -5.2236241955        0.3755747723      -19.4084322211
 H        -3.9481317199        1.4733981110      -18.8505938463
 H         0.2941328202        7.6803056310      -21.0376602654
 H        -1.3715397723        7.9244296351      -20.8147982032
 H        -0.8792751588        6.6614703160      -21.7404489139
 H         1.5657667818        6.4174607639      -19.3416308418
 H         1.0515625268        4.7889112524      -20.0615172524
 H         0.7728806177        5.1481972090      -18.4004184872
 H        -6.5630345197        7.2675384541      -17.6026545328
 H        -6.4455384717        8.9768226190      -18.2309860933
 H        -7.1460189341        8.6633341802      -16.7884413977
 H        -3.9220365470        9.5495209527      -15.1409837177
 H        -5.5875568200        9.5290076831      -15.0367271527
 H        -4.8594150380       10.3072477963      -16.4689312720
 H        -0.3530386028        2.8744547813      -11.8544850026
 H        -1.6261219072        3.8308923584      -11.1076582190
 H        -0.2218793577        4.6595234857      -11.6742878430
 H        -0.7920710888        4.2049798080      -15.3046004495
 H         0.0612928484        2.9697115386      -14.4690966366
 H         0.4343385267        4.7132052581      -14.1831330070
 H        -3.1206034108       -2.1905899009      -14.1560994084
 H        -4.8486165329       -1.6992282722      -14.4116092595
 H        -4.4103320731       -3.2723048673      -13.7970396780
 H        -6.2188794279       -1.0724200062      -12.8804855472
 H        -5.8919714683       -1.0003185136      -11.0691756515
 H        -6.3815239786       -2.4224957876      -11.8652307254
 H        -3.5901921769       -7.7231809175       -6.7382890965
 H        -2.2452918408       -7.0506318276       -7.6483127116
 H        -3.9442166088       -7.1555423170       -8.4647636187
 H        -5.5238642978       -6.3934764103       -5.8426221271
 H        -5.8044579038       -5.8650547194       -7.5927681646
 H        -5.5608480969       -4.6157324193       -6.2514161257
 H        -2.3733003742       -7.1945919952       -0.4780446874
 H        -2.1437237000       -7.4573124371       -2.2936445913
 H        -3.5092204861       -6.4801132608       -1.6859634986
 H        -3.1489396762       -4.5095784502       -0.3712747365
 H        -1.6256826454       -3.6595712912       -0.1995823073
 H        -1.8096721659       -5.1200394759        0.7004646966
 H         4.0685858353       -8.4073392881       -0.4632529600
 H         4.7036475963       -9.1944712450       -1.9698007314
 H         4.4589572313      -10.0322917629       -0.5734465765
 H         3.2075985164      -10.4510613534       -3.4189220128
 H         1.6169873291      -11.0223940940       -2.9140777710
 H         3.0094383461      -11.6532858659       -2.0994717074
 H        -3.0976570124      -13.9128174811        2.1712509656
 H        -1.3305287115      -13.9684938049        1.9225367018
 H        -2.4050874368      -13.2911659824        0.5880913095
 H        -3.8103271043      -11.3945951381        1.3823984539
 H        -3.2046232084      -10.2909449438        2.6701114828
 H        -4.0863342765      -11.9033745874        3.0484489709
 H         2.7484168715       -7.1697510565        5.3305269102
 H         2.3503486394       -7.9219935471        3.7045606625
 H         2.8399501227       -8.7768090242        5.3167793109
 H         0.9474736336       -9.3272812566        7.2861671313
 H        -0.4432308221       -8.1799409992        7.1938773283
 H         1.0473756413       -7.5394291489        7.4149605248
 Na       -0.2535195794       -8.3293809546        1.7199160186
 Na       -4.9866281310        5.8584776936      -18.9386823931
