232

 C         0.1838127446       -5.6931578916        5.2299605647
 C         0.0909442290       -7.0481739644        4.5344702871
 O        -0.5526902488       -7.1109893760        3.4506554353
 C         0.7563519187       -8.3459688623        5.2671981187
 C         0.3488306205       -9.7789811756        4.6914182444
 O         0.5400738929       -9.9986232620        3.4664521742
 C        -0.3940730317      -10.7782358041        5.5948669806
 C        -1.7105866214      -11.1204418740        4.8741045792
 C        -1.4032328780      -12.1402421818        3.7840501362
 O        -0.7876558634      -13.1714202350        4.0344373826
 C        -2.0587213539      -12.0250193593        2.3469802565
 C        -1.0940174398      -11.1786392301        1.5299839006
 O        -1.4372872983      -10.1008906567        1.1269046872
 C         0.3238885149      -11.7916785301        1.0314553070
 C         0.6747215489      -11.1166323142       -0.3246196730
 C         1.6710410441       -9.9718508395       -0.2233052829
 O         1.8523703254       -9.2528376566        0.7758412507
 C         2.5329818441       -9.6297903386       -1.4497142476
 C         1.7165948292       -8.3685579150       -2.0409714735
 O         0.6205447435       -8.5600317142       -2.5397343700
 C         2.2476857908       -6.9417414241       -1.6105113880
 C         1.1526542415       -5.8977438546       -1.8421134620
 C        -0.0858547275       -5.9484023880       -0.9380196942
 O        -0.0166879084       -6.4623122769        0.1835690048
 C        -1.5784701557       -5.4957720183       -1.3925083277
 C        -1.5365527110       -4.6965613798       -2.7020020713
 O        -0.6115817027       -4.2253448690       -3.3606881890
 C        -2.8880068952       -4.1107287681       -3.1472673691
 C        -3.3536846381       -4.1744429430       -4.5728683352
 C        -3.0009123087       -5.4417764646       -5.3834492012
 O        -2.5839246574       -6.4636899942       -4.9035276723
 C        -3.7505650992       -5.6066635996       -6.8441390283
 C        -3.3589066725       -4.4231835157       -7.8202713483
 O        -3.1338516803       -3.3303570827       -7.4338058074
 C        -3.5527340392       -4.5296805228       -9.4297294857
 C        -3.8983332105       -3.1769782387       -9.9732052444
 C        -3.7460364892       -3.0244553221      -11.4553960516
 O        -2.9596234866       -3.7342130094      -12.0798242499
 C        -4.4282538164       -1.8047397870      -12.3715244970
 C        -3.4707481298       -0.6036057260      -12.0620913683
 O        -2.6077882573       -0.5799014824      -11.2392035576
 C        -3.8220964147        0.7357715394      -12.9076907009
 C        -2.9710691975        1.8694814970      -12.4263917647
 C        -2.4622539653        2.7456087773      -13.6208064195
 O        -2.8066194770        2.4751717932      -14.7796235875
 C        -1.5175060745        3.9451089704      -13.2713367470
 C        -2.4859067825        5.2208532488      -13.3690959140
 O        -2.9439082843        5.7069547436      -12.3567856955
 C        -2.9945929113        5.6919302891      -14.7452039385
 C        -4.1512665263        6.7400131990      -14.6175956394
 C        -4.8124032893        6.9122723184      -15.9855003715
 O        -5.1485823476        5.8780431286      -16.5791106811
 C        -4.8085341252        8.2675529264      -16.6811254195
 C        -3.7614883546        8.2485201049      -17.8015847293
 O        -3.8616394705        7.8072750952      -18.9573646341
 C        -2.4596199068        8.9094955175      -17.3158056140
 C        -1.3714786689        8.4961660333      -18.3094651117
 C        -1.1259501024        6.9598711545      -18.3630913209
 O        -1.2267762550        6.2705695135      -17.3455547846
 C        -0.6043648262        6.2769327954      -19.6431409194
 C        -1.6481727091        5.0414689891      -19.9634984416
 O        -2.8070303328        5.3708732489      -20.0722076034
 C        -1.1646948024        3.7375388418      -20.5518019869
 C        -2.0229364743        2.4535698092      -20.2001831029
 C        -2.8948213168        2.0485740898      -21.3176846822
 O        -2.6630581004        2.0948120715      -22.5127354457
 C        -4.3264171638        1.6461520227      -20.7979574509
 C        -5.0231344626        3.0316050372      -20.5709211457
 O        -4.9050296499        3.6454362405      -19.5554285512
 C        -5.9856300458        3.4513442883      -21.6728680180
 C        -6.6553586374        4.7914912063      -21.4764442225
 C        -7.5953589516        4.6308851612      -20.3148130416
 O        -7.3267765087        4.9778694965      -19.1826018863
 C        -9.0820011000        4.0361780212      -20.6126405046
 C        -9.1182701508        2.5763784706      -19.9338079393
 O        -8.3389327122        1.7322494864      -20.3389006242
 C       -10.1935953766        2.1979318921      -18.8812051193
 C        -9.8227869276        2.1544543074      -17.3955158056
 C        -9.6071816558        0.8086935543      -16.6747443165
 O        -8.7081616338        0.0512510980      -16.8250781599
 C       -10.7760878598        0.3824695594      -15.5174400275
 C       -10.7091466909        1.5077468975      -14.4695581555
 O       -10.8539600093        2.6519153793      -14.8376095730
 C       -10.4313288560        1.0611361254      -12.9864660536
 C       -12.1278509748        0.5243703670      -16.2535779350
 C       -10.4990045048       -1.0180608220      -15.0976248367
 C        -9.9894361989        4.9963501118      -19.9196191071
 C        -9.4795415975        4.0323765115      -22.1237382329
 C        -5.0410082095        0.8137504276      -21.8769095911
 C        -4.2643335996        0.8540195659      -19.3759024803
 C        -0.6105241141        7.0575311052      -20.9236921680
 C         0.8965496012        5.6753749626      -19.3748134863
 C        -6.2673632254        8.3851187552      -17.2495414354
 C        -4.6266946685        9.4908351238      -15.7756887957
 C        -0.9219682058        3.8588213379      -11.8580836170
 C        -0.3724131252        4.0378080565      -14.3405128115
 C        -4.2177927220       -2.1606835740      -13.8648060097
 C        -5.8687455259       -1.3071099958      -11.9682189602
 C        -3.2678542015       -6.9262884475       -7.4467484945
 C        -5.2943681702       -5.6786861672       -6.6911068959
 C        -2.3898216498       -6.7931324182       -1.6846197518
 C        -2.1596135015       -4.7031798217       -0.2188740937
 C         3.9785242469       -9.4171315745       -1.0037000668
 C         2.4707160336      -10.7469360378       -2.5634137745
 C        -2.2489702586      -13.5349540630        1.9220847588
 C        -3.4514994084      -11.3189417716        2.4974655936
 C         2.1889971142       -7.9644575302        4.8448298732
 C         0.5815364746       -8.4084926939        6.7365311049
 H        -0.4601072498       -5.7218300937        6.1146663972
 H        -0.2823238195       -4.8699835373        4.6450653581
 H         1.1219670041       -5.4893965843        5.5604695693
 H        -0.6016724700      -10.4705342360        6.6285055133
 H         0.1903285411      -11.7043192594        5.6148463937
 H        -2.2464959331      -10.2099924525        4.7150558054
 H        -2.3484268849      -11.6655126489        5.6655112312
 H         0.1417542986      -12.8577694082        0.8558601381
 H         1.1893986019      -11.7224019125        1.8349221438
 H        -0.3096143705      -10.6035463188       -0.5868093371
 H         0.9888447731      -11.8780229114       -1.0746498955
 H         3.2434409772       -6.6964178365       -2.0638578324
 H         2.6239519583       -7.0060969886       -0.5554229943
 H         0.7738473344       -6.2275447854       -2.8366615631
 H         1.6246299454       -4.9395918713       -1.9767313814
 H        -2.8959728637       -3.0505926684       -2.9379625938
 H        -3.7588545894       -4.5900826202       -2.5335388661
 H        -2.7631302214       -3.3351549120       -4.9778788585
 H        -4.2955853831       -3.6594370705       -4.5863655806
 H        -4.2771396138       -5.2889159349       -9.7480117360
 H        -2.6651585448       -4.9106725806       -9.9312230524
 H        -3.1681387869       -2.4790950523       -9.5668487389
 H        -4.8899172907       -2.9249071790       -9.6636596624
 H        -4.9215120009        0.8663744437      -12.9987677442
 H        -3.5151361082        0.4531100964      -13.9163601257
 H        -2.2179258031        1.4798504412      -11.8151389474
 H        -3.5515584514        2.4667963472      -11.8481845647
 H        -3.3984882356        4.8757222362      -15.3244026420
 H        -2.2258293407        6.1003561508      -15.5131146423
 H        -3.6417530675        7.7123082238      -14.5370632419
 H        -4.9032045699        6.6074046791      -13.7763715013
 H        -2.2026298797        8.5452297481      -16.3280571904
 H        -2.6813315996        9.9898496130      -17.3558324040
 H        -0.3486458745        8.8324968896      -18.0108337476
 H        -1.5059595906        8.9338966751      -19.2519125524
 H        -0.1355136649        3.5534207775      -20.2909800430
 H        -1.3864875182        3.7595391405      -21.5980500134
 H        -2.4478468335        2.5599900779      -19.1943404581
 H        -1.2639286476        1.7088929287      -20.0797344212
 H        -6.7701976575        2.7105826252      -21.8170063950
 H        -5.5015616419        3.4336617771      -22.6940411056
 H        -7.2669149587        5.0827255161      -22.3676563065
 H        -5.8778890429        5.5597857524      -21.2864027155
 H       -10.5534238803        1.1598939003      -19.2273507900
 H       -11.0329782008        2.8195800804      -19.0587725727
 H       -10.6231751205        2.6886850867      -16.8066276396
 H        -8.9218647247        2.7375840668      -17.3556691444
 H       -10.3915684627        1.9870780374      -12.3440233141
 H        -9.5053593559        0.5046468353      -12.8864777234
 H       -11.2909150704        0.5915790243      -12.5373488726
 H       -12.8584107735       -0.0060904216      -15.6855486216
 H       -12.1637857615        0.1011574569      -17.2912164555
 H       -12.4385889735        1.5247106846      -16.3697387865
 H       -11.0105754867       -1.7837877871      -15.5962708840
 H       -10.6900562427       -1.2076964576      -14.0186378863
 H        -9.3978402706       -1.2281679438      -15.2025885575
 H        -9.7264157451        5.0388280499      -18.9440625203
 H       -11.0265483913        4.7674778355      -19.9800605205
 H        -9.9021331082        5.9454729119      -20.4301239741
 H        -9.0976348634        3.1798011677      -22.6484017404
 H        -9.1354894505        4.9746584897      -22.5597863047
 H       -10.5490453531        3.9094123025      -22.1839875608
 H        -6.1099634178        0.5996671876      -21.7542879579
 H        -4.5632335244       -0.1684139703      -21.9717973801
 H        -4.8531699769        1.3906070237      -22.8042051624
 H        -3.6168242230       -0.0752678789      -19.4455942723
 H        -5.2953205813        0.6174810231      -19.1404223620
 H        -3.8191194474        1.3626086212      -18.4632165119
 H         0.2198323902        7.6335158585      -20.9263048796
 H        -1.3888536369        7.6917766520      -21.1003954892
 H        -0.5167383153        6.3771486926      -21.7440049260
 H         1.6486901286        6.4167322339      -19.3815246181
 H         1.1570210560        4.8687358964      -20.0727180971
 H         0.9369753702        5.2153535879      -18.3982816191
 H        -6.6649161814        7.3481499688      -17.3828730255
 H        -6.3725134919        8.9773625868      -18.1333735873
 H        -6.9197747754        8.8755068933      -16.5448348895
 H        -3.5545406955        9.5842240938      -15.2736130955
 H        -5.1766349819        9.3957361236      -14.8501104226
 H        -4.8562937922       10.4856747203      -16.2223539318
 H        -0.1693792462        3.0529020424      -11.9353481324
 H        -1.5740605530        3.5919677668      -11.0271296045
 H        -0.4014330989        4.7583231574      -11.4866070967
 H        -0.8255201986        4.5013774258      -15.2035702261
 H         0.0631988466        3.0931649722      -14.6630253661
 H         0.3896751001        4.7635895641      -13.9985273515
 H        -3.1916376708       -2.4835611122      -14.0069160216
 H        -4.4523623279       -1.3959673196      -14.4628663653
 H        -4.8402614835       -2.9759631405      -14.1498973655
 H        -6.2925880024       -0.9587749295      -12.8896981282
 H        -5.8075435752       -0.5624903856      -11.1307089200
 H        -6.6037134120       -2.1062705667      -11.6522106151
 H        -3.6771305366       -7.7332139837       -6.8379526066
 H        -2.1598456689       -6.9794938905       -7.4352566876
 H        -3.7151699248       -6.9362955814       -8.4465525901
 H        -5.4324610685       -6.6320170413       -6.1595731967
 H        -5.7032788774       -5.7730347188       -7.6976430254
 H        -5.8390438094       -4.8546152061       -6.1536272803
 H        -2.3988163816       -7.3694511084       -0.6800138244
 H        -2.0057574816       -7.3174735869       -2.5501348681
 H        -3.3962474510       -6.4700134452       -1.9233759453
 H        -3.2224538013       -4.6419071820       -0.4318557935
 H        -1.8047470488       -3.6660160357       -0.1144708336
 H        -1.8433362335       -5.2053485296        0.7258349624
 H         4.1841096773       -8.8155456761       -0.0936130030
 H         4.5695503374       -8.9733404605       -1.8112088845
 H         4.5672572114      -10.3380778253       -0.8216677963
 H         3.0884153921      -10.3680268312       -3.4002315587
 H         1.5043063581      -10.8446650612       -3.0051927143
 H         2.8065612253      -11.7128259949       -2.3024517727
 H        -3.2091804536      -13.9669774619        2.3255126269
 H        -1.4022340855      -14.1474707893        2.3239881519
 H        -2.2960930659      -13.5807136823        0.8199278347
 H        -4.0686660495      -11.4070876090        1.5925972977
 H        -3.1865806520      -10.2659485947        2.6956830762
 H        -4.0105114058      -11.7737919702        3.3117062308
 H         2.5268216176       -6.9383223988        5.0573185122
 H         2.2008740220       -8.1600029331        3.7786074844
 H         3.0031202618       -8.4213870421        5.4236222125
 H         1.0751226024       -9.3433244529        7.0076525365
 H        -0.4463965023       -8.3368316271        7.0985776459
 H         1.0592135519       -7.5666487941        7.1209506154
 Na       -0.1696861026       -8.2865610273        1.5942943217
 Na       -4.9503400182        5.8218919498      -19.0214998223
