232

 C         0.0387292720       -5.7900114154        5.3483698590
 C        -0.0155554070       -7.1099788869        4.5350882328
 O        -0.5294965301       -7.0621257767        3.4694111792
 C         0.8165345647       -8.2886340766        5.2094750085
 C         0.3360792472       -9.7642670404        4.6090815369
 O         0.4956601433      -10.0099951228        3.4540924359
 C        -0.2350198051      -10.8056156901        5.5702814522
 C        -1.6815490836      -11.2331781289        4.9745028538
 C        -1.4694610903      -12.2745826093        3.9656479491
 O        -0.6753067290      -13.1282793723        4.1529129247
 C        -2.1205989678      -12.1302797255        2.4661235101
 C        -1.1726855499      -11.3220234219        1.5446621892
 O        -1.4198753166      -10.0971625121        1.3250753405
 C         0.2748815573      -11.6285258903        1.1160328451
 C         0.5977853284      -11.0545822798       -0.3038674383
 C         1.7441298246      -10.0346406888       -0.2200838296
 O         1.9546532161       -9.3865497587        0.7874844298
 C         2.5432202696       -9.6398838449       -1.4960639095
 C         1.7113936653       -8.3969683508       -1.9247882717
 O         0.6881212189       -8.6145879017       -2.5772791000
 C         2.1022941484       -6.9670375534       -1.7590712313
 C         1.0369330386       -5.9273640929       -1.9637007478
 C        -0.1101635221       -6.0877976205       -1.0005007024
 O         0.0016212702       -6.6187607710        0.0862071719
 C        -1.5312414714       -5.4485005808       -1.4488338284
 C        -1.5624796094       -4.5245502104       -2.7834785067
 O        -0.5469475892       -4.2371935167       -3.4060704184
 C        -2.9831261050       -3.9427266624       -3.2118119284
 C        -3.2237029296       -3.9615663659       -4.7655485393
 C        -3.0888384488       -5.3600879334       -5.3987742173
 O        -2.3402694696       -6.1588752588       -4.7995168665
 C        -3.7053949544       -5.6642796104       -6.8777158241
 C        -3.4221440288       -4.3757042143       -7.8403308863
 O        -3.0890095559       -3.3184479968       -7.3922558416
 C        -3.4967304230       -4.5977207579       -9.3258955409
 C        -3.9743915930       -3.2984442833      -10.0418770974
 C        -3.7865243221       -3.0890928698      -11.6291197757
 O        -3.0595462376       -3.8858052126      -12.1717841599
 C        -4.4303567473       -1.7668989388      -12.3879830548
 C        -3.5296671704       -0.5685398389      -12.0973571317
 O        -2.6711936855       -0.5107189497      -11.1834813852
 C        -3.8146227535        0.7576913981      -12.9571205267
 C        -3.1046862157        2.0171218311      -12.4516776400
 C        -2.4271149194        2.8014483658      -13.5820177001
 O        -2.6189057060        2.5153187344      -14.7684201953
 C        -1.5896423581        4.0239570907      -13.2898670590
 C        -2.6004953019        5.1888725780      -13.3008295132
 O        -2.9591449555        5.7898792286      -12.2901906731
 C        -3.0181019932        5.7191925677      -14.6983178891
 C        -4.0295532509        6.7633550013      -14.6890616046
 C        -4.6337819828        6.8958953680      -16.0883214705
 O        -5.0293282252        5.8886841490      -16.6248379635
 C        -4.8625504042        8.4212202738      -16.6875237857
 C        -3.7754819022        8.4803472065      -17.7987807912
 O        -3.9285744085        7.8705852598      -18.8589781020
 C        -2.2440128276        8.9058132341      -17.3718182547
 C        -1.1274732602        8.5260561905      -18.3361061870
 C        -1.0224754931        7.0094818927      -18.3666341084
 O        -1.2945245122        6.3817617309      -17.3377239085
 C        -0.5174020871        6.1724601555      -19.7464538385
 C        -1.6527466315        5.0089586189      -20.0558615852
 O        -2.8352861510        5.2362934714      -19.9301150927
 C        -0.9939606463        3.6645464120      -20.5390302543
 C        -1.9742885301        2.4454222691      -20.1223424850
 C        -2.9823893525        2.1021248760      -21.1624511894
 O        -2.7410278093        2.2604727064      -22.3477538253
 C        -4.4421067011        1.5838248364      -20.6787525340
 C        -5.2203880972        2.8809640343      -20.4922983434
 O        -4.8949124375        3.5330746125      -19.4986031182
 C        -6.1134082105        3.3491263154      -21.6566288976
 C        -6.6335601741        4.8654966685      -21.5396470339
 C        -7.6389436963        4.7601659866      -20.3782494888
 O        -7.2204067340        4.9797529268      -19.2172291333
 C        -9.0633998196        4.1738562161      -20.6350422517
 C        -9.1466673753        2.5238457035      -20.0115577639
 O        -8.4668863013        1.7104494230      -20.5449953143
 C       -10.1261890425        2.2057334132      -18.8653359331
 C        -9.6452271879        2.1646568746      -17.3955137888
 C        -9.8023607953        0.7072781702      -16.6969505570
 O        -8.9415838733       -0.0887961870      -16.9388792238
 C       -10.8386559326        0.2919072132      -15.5832740871
 C       -10.7042157809        1.3301854360      -14.4059335568
 O       -10.8740734418        2.5223470297      -14.6450607410
 C       -10.4579938016        1.0076905440      -12.9802406602
 C       -12.2422789076        0.4407725160      -16.2801462612
 C       -10.5493104630       -1.1114142924      -15.0336171082
 C       -10.0313427491        5.0587493143      -19.8346506939
 C        -9.3971030618        3.9631477110      -22.1260879389
 C        -5.0877015504        0.6939480979      -21.7526783387
 C        -4.3611649477        0.9073763369      -19.2788620724
 C        -0.5057986006        6.9821832599      -21.0513808945
 C         0.8769511563        5.8228956048      -19.3249408006
 C        -6.3107358549        8.5201843675      -17.3131200761
 C        -4.5944275328        9.5336800816      -15.6594343283
 C        -0.9321459279        3.9734246164      -11.8649772665
 C        -0.4723405768        4.1344315540      -14.3326879574
 C        -4.4405050038       -2.0943531146      -13.8638249759
 C        -5.8552052674       -1.3499539778      -11.9524175445
 C        -3.0803901433       -6.9672855269       -7.4070940881
 C        -5.2551617747       -5.6600713929       -6.7670172675
 C        -2.1859049142       -6.8324605382       -1.8204425018
 C        -2.2164234637       -4.7363783038       -0.3054552785
 C         3.9465593588       -9.4316714250       -1.0045480025
 C         2.4074375659      -10.7397670191       -2.6322719340
 C        -2.3445598014      -13.6112194340        1.9700068073
 C        -3.4977396584      -11.3238133317        2.5231951173
 C         2.3623429896       -8.1836231236        4.8333825154
 C         0.7150588275       -8.1351831879        6.7005849885
 H        -0.3882134890       -5.6650955148        6.3223635983
 H        -0.3597373063       -5.0322299395        4.7726563074
 H         1.1430467980       -5.7016185766        5.4772087271
 H        -0.3612435543      -10.5044120821        6.5758406011
 H         0.3904588959      -11.6424984939        5.5249157798
 H        -2.1737944563      -10.2899246176        4.5966855223
 H        -2.3017991973      -11.5290116285        5.8353312179
 H         0.5562787843      -12.6423374935        1.1828777320
 H         0.8151557349      -11.1007155361        1.8356818644
 H        -0.2896570733      -10.4226405191       -0.5588624642
 H         0.7427026288      -11.9138065977       -1.0369389142
 H         2.9558772052       -6.8974634191       -2.4456540180
 H         2.6525489886       -6.7479075984       -0.8283378902
 H         0.7349551340       -5.9206989946       -3.0109080211
 H         1.5798417866       -4.9875265495       -1.7307562311
 H        -3.2643047406       -2.9549147287       -2.7836729646
 H        -3.7017521002       -4.6417858406       -2.8832899559
 H        -2.4402869271       -3.2351486904       -5.1877190224
 H        -4.1003763136       -3.3246054621       -4.8568243201
 H        -4.1298075140       -5.4725019598       -9.5194528931
 H        -2.5675045172       -5.0161484323       -9.7436529883
 H        -3.3154758247       -2.5072144711       -9.5802304067
 H        -5.0556823313       -3.1898315685       -9.7225062100
 H        -4.9383698631        0.7830757894      -12.9038235980
 H        -3.5869290682        0.5435986191      -13.9729941838
 H        -2.4378854473        1.7192057962      -11.6779798783
 H        -3.8678522277        2.7153544109      -11.9999412661
 H        -3.4610723154        4.9863036319      -15.3728364971
 H        -2.1835583098        6.0281820803      -15.3214603428
 H        -3.6215219996        7.7834830226      -14.3875824654
 H        -4.8742278080        6.4925423631      -14.0766430057
 H        -1.9832597745        8.4093024292      -16.3998484775
 H        -2.2319980623       10.0290983843      -17.2799482929
 H        -0.1456596291        8.8815274337      -17.9918948892
 H        -1.2025919518        9.0068179411      -19.3672483210
 H        -0.0493697099        3.5590285770      -20.1090002419
 H        -1.0379219055        3.5102008138      -21.5977108096
 H        -2.4168445822        2.7918309147      -19.2126664410
 H        -1.3335845289        1.5819921998      -19.7865369425
 H        -7.0250401723        2.7267140136      -21.8165585897
 H        -5.5487649110        3.2037197974      -22.5338873484
 H        -7.0878528671        5.2460440530      -22.4584887161
 H        -5.7806019049        5.5755122014      -21.1937550358
 H       -10.5630219334        1.2640065971      -19.0734197361
 H       -10.9955077263        2.9661136977      -19.0635761601
 H       -10.0184432386        3.0375161084      -16.7951679099
 H        -8.5555400370        2.2252686546      -17.5090836944
 H       -10.4911829394        1.7913939783      -12.2895731940
 H        -9.4978705036        0.3445487377      -12.9347887282
 H       -11.3626425910        0.4437620046      -12.6879451846
 H       -12.9616548003        0.2901803469      -15.4824333639
 H       -12.4358569988       -0.2955039860      -17.0048188507
 H       -12.4160740451        1.3859148955      -16.8240696560
 H       -11.0610613754       -1.9020097692      -15.5145174269
 H       -10.8907861553       -1.2109297925      -14.0326515059
 H        -9.5448645573       -1.3940719909      -15.0270004989
 H        -9.7156381032        5.0694106495      -18.8122465582
 H       -11.0935653094        4.7079830486      -19.8315651532
 H       -10.1475260202        5.9723039024      -20.3401278829
 H        -8.7837548868        3.1390375628      -22.5974630258
 H        -9.3136925612        4.8896881155      -22.6426751925
 H       -10.4218168291        3.6328479119      -22.1822709223
 H        -6.1623617115        0.4222888621      -21.5910108032
 H        -4.5678594214       -0.3102124400      -21.8783751757
 H        -4.9706069757        1.2707174064      -22.7054389379
 H        -3.6995904608        0.0161428833      -19.3173529506
 H        -5.4421661481        0.6316297867      -19.0354060441
 H        -3.9281795633        1.4468712571      -18.4674013573
 H        -0.0772419590        8.0517637511      -20.7712870610
 H        -1.4901233666        7.2061963962      -21.4441157137
 H         0.1178182453        6.5865482775      -21.8324429360
 H         1.2467505781        6.7674214994      -19.0523277109
 H         1.4812689844        5.4960555157      -20.0994641515
 H         1.0641919102        5.1947038132      -18.4570136416
 H        -6.7824293737        7.6085853191      -17.6852351972
 H        -6.2741616065        9.3234313304      -18.0747103109
 H        -7.0003481060        8.9968351187      -16.5186209370
 H        -3.6157557123        9.3803084601      -15.3276322109
 H        -5.1576277819        9.4582159069      -14.6900886427
 H        -4.6343771269       10.5982242774      -15.9575393404
 H        -0.1410557062        3.2099677914      -11.7812804650
 H        -1.6861614271        3.7639841217      -11.1049289324
 H        -0.4906588130        4.8878378929      -11.5521490769
 H        -0.7060636356        4.4434777295      -15.3764103990
 H         0.0804677687        3.1754592186      -14.3646302465
 H         0.1699684747        4.8645564529      -13.8600298145
 H        -3.6380448631       -2.7417237175      -14.0480585921
 H        -4.3853137406       -1.2216200835      -14.5206922499
 H        -5.3611430918       -2.5838312279      -14.2095689382
 H        -6.3312877569       -0.9518664993      -12.8654288608
 H        -5.8001543490       -0.6157799254      -11.0662487060
 H        -6.5227609363       -2.1968245104      -11.6930551686
 H        -3.5322956394       -7.7758385718       -6.8648641684
 H        -2.0111245544       -6.9473210158       -7.3519806581
 H        -3.4530176509       -7.0221712774       -8.4212172362
 H        -5.4711400009       -6.5669689739       -6.2775559157
 H        -5.7444773496       -5.5779712007       -7.7320742430
 H        -5.6472720863       -4.8235103536       -6.2028548671
 H        -2.1797199826       -7.4860967157       -0.9514169137
 H        -1.7873520579       -7.2565004561       -2.7786958600
 H        -3.1777517432       -6.5105369911       -2.0423737661
 H        -3.2261488121       -4.6715030427       -0.6710143252
 H        -1.8605879146       -3.7338735072       -0.0835346776
 H        -2.0310177388       -5.2851074258        0.6899923353
 H         4.0352818069       -9.1106035171       -0.0162763356
 H         4.4960758688       -8.7127488209       -1.5933112214
 H         4.6639186612      -10.3349138658       -1.0581251774
 H         3.0230368692      -10.4477965170       -3.4294945438
 H         1.4193233697      -10.7172673922       -3.1208767542
 H         2.6454292356      -11.7215099043       -2.3400450906
 H        -3.1943964179      -14.0579024481        2.3740948219
 H        -1.4496437932      -14.2186227943        2.1928446339
 H        -2.5094963560      -13.5076360051        0.8760042053
 H        -4.0985268688      -11.5529517389        1.6283053194
 H        -3.2944339448      -10.2763851276        2.5683454066
 H        -4.0518919718      -11.6842747411        3.3606641715
 H         2.7713007278       -7.2119900776        4.9995532213
 H         2.5086440046       -8.4806437647        3.8009363470
 H         2.9500882302       -8.6767568844        5.5337741815
 H         1.3984747328       -8.8627624611        7.0859513003
 H        -0.3269912395       -8.3757002141        7.0785917144
 H         0.9129039376       -7.0754100174        6.9481270026
 Na       -0.0050797317       -8.2966162736        1.4685957629
 Na       -5.0346445685        5.7635729489      -19.0300086761
