232

 C        -0.3018758489       -5.8223563464        5.2831095997
 C         0.1383356254       -7.0632712453        4.6238670740
 O        -0.2815640962       -7.2369706692        3.4327177215
 C         1.0141019167       -8.1862504216        5.2319420468
 C         0.3160400103       -9.4800816199        4.7460947368
 O         0.2827395967       -9.6535567240        3.5056981851
 C        -0.2747772106      -10.6078887721        5.6500536907
 C        -1.4856172007      -11.3019270020        5.1091792062
 C        -1.3145754190      -12.3061900488        3.9810571736
 O        -0.5500452397      -13.2568483639        4.1357793825
 C        -2.1791302893      -12.2017216325        2.6348804477
 C        -1.2728235472      -11.1414466518        1.7381185799
 O        -1.5598168195       -9.9920364761        1.6618291880
 C        -0.0180864601      -11.8566205814        1.0953466900
 C         0.5433873851      -11.1544816420       -0.2198918208
 C         1.7391331817      -10.1749961802       -0.1945321939
 O         2.1147894369       -9.7067810664        0.8846163108
 C         2.4439271779       -9.6900384181       -1.5478708759
 C         1.6548814829       -8.4675540404       -2.0578727795
 O         0.6056074625       -8.6274843132       -2.6222500599
 C         2.1561530881       -7.0729452027       -1.8513409946
 C         1.1198732880       -5.9926890480       -2.3167480692
 C        -0.0839288474       -6.0353440287       -1.3564992219
 O        -0.0531174165       -6.6161885298       -0.2468793055
 C        -1.5485005443       -5.5765495090       -1.7425803284
 C        -1.5880274182       -4.5258253792       -2.8967326101
 O        -0.5853081163       -4.0095138793       -3.3841089989
 C        -2.9495502937       -3.9294720467       -3.2402587915
 C        -3.0243114704       -3.6364540719       -4.8481584472
 C        -2.8011985407       -5.0162459680       -5.4631078464
 O        -2.1975947995       -5.9096978846       -4.9568263321
 C        -3.4560346031       -5.4038301204       -6.9500723971
 C        -3.2887808973       -4.2570387801       -7.9684436607
 O        -3.0303084055       -3.1442321763       -7.5480451174
 C        -3.4977272374       -4.5213706940       -9.4841431344
 C        -4.1185879782       -3.2763591652      -10.2148323464
 C        -3.9436896318       -3.1403420603      -11.6553545767
 O        -3.3972165919       -4.0589353688      -12.2969362458
 C        -4.4633250252       -1.8149800493      -12.3340145283
 C        -3.5608070990       -0.4743973305      -12.1005919762
 O        -2.8662389200       -0.4112446621      -11.1645106040
 C        -3.8420672079        0.7352197089      -13.0550139595
 C        -3.2309735565        2.0209118628      -12.4720480034
 C        -2.3781232007        2.7820484401      -13.4790427334
 O        -2.3854929403        2.4459427070      -14.6453590953
 C        -1.5453924059        4.1099514697      -13.0975789454
 C        -2.6157279984        5.3538336723      -13.3124071854
 O        -3.0448591741        5.8488528529      -12.2980229870
 C        -3.0603321656        5.7236050834      -14.6891127137
 C        -4.1166645836        6.8817152404      -14.6234974012
 C        -4.4880624197        7.1241532157      -16.1160015962
 O        -4.7706265821        6.1758079269      -16.8674583495
 C        -4.6622066070        8.6108939341      -16.5985467602
 C        -3.6146638902        8.5909132380      -17.7598675215
 O        -3.7974281706        8.0784295825      -18.8654254752
 C        -2.2516210966        9.1746987159      -17.4491426281
 C        -1.2615070228        8.5570502993      -18.5184920005
 C        -1.0651527228        6.9715656856      -18.6073359356
 O        -1.3886852857        6.3832777718      -17.6017912340
 C        -0.4685622732        6.2370191634      -19.8209388520
 C        -1.4491664420        4.8993631343      -19.9253085931
 O        -2.6448653686        5.0883890782      -19.7197966475
 C        -0.9582982324        3.4634604075      -20.3308032105
 C        -1.9725633495        2.3590063704      -19.9147100109
 C        -3.0079097918        2.1083491774      -20.9755153240
 O        -2.9961188844        2.5714657083      -22.0973510112
 C        -4.4163848552        1.4090784312      -20.4082692203
 C        -5.2679554114        2.7578748976      -20.4551348347
 O        -5.1997633764        3.4299793127      -19.4562726976
 C        -5.9782906578        3.2433591216      -21.7282019995
 C        -6.6637388404        4.5538658533      -21.4179957573
 C        -7.6932116374        4.7214466835      -20.2340764305
 O        -7.4457861339        5.3613325446      -19.2434843682
 C        -9.1488261980        4.1540611923      -20.5324168560
 C        -9.2054648684        2.6308593868      -19.9920827772
 O        -8.6649099487        1.8084899489      -20.7070491406
 C       -10.0781055054        2.0829005710      -18.7390736517
 C        -9.4055559167        1.9055571409      -17.3311135299
 C        -9.8347877971        0.4848962219      -16.8098405852
 O        -9.2600575363       -0.4725238574      -17.2739235876
 C       -10.8842522813        0.2933193978      -15.6967781741
 C       -10.7106401666        1.3247790950      -14.4819161231
 O       -10.9727556473        2.4953023665      -14.5163841049
 C       -10.5309793634        0.6234188189      -13.0462171112
 C       -12.3326093160        0.4587834411      -16.1348653839
 C       -10.7292293334       -1.1584809652      -15.2390266478
 C       -10.1307503497        5.0836184932      -19.8194566915
 C        -9.5568495812        4.0647630865      -22.0109199797
 C        -4.9151045383        0.4518000145      -21.5235472752
 C        -4.4911125215        0.6241316054      -19.0620792728
 C        -0.5366831643        7.0848106755      -21.1182918460
 C         0.9728485739        5.7867212371      -19.2825966201
 C        -5.9876256633        8.7688789431      -17.3977878196
 C        -4.6470848938        9.6798732630      -15.4740029993
 C        -0.9645325269        4.0830760899      -11.6913856497
 C        -0.4112859831        4.3377251620      -14.2053536745
 C        -4.6581827127       -2.1869569049      -13.8334361185
 C        -5.8412561890       -1.6507185909      -11.5948076237
 C        -2.8625934400       -6.8035236232       -7.2782566382
 C        -5.0071430061       -5.6991496270       -6.6888024414
 C        -2.3006637749       -6.8545603076       -2.1818528303
 C        -2.2839433028       -4.9919242008       -0.4806288600
 C         3.9256387001       -9.2888283934       -1.3102996008
 C         2.4926866641      -10.8326715512       -2.6254053234
 C        -2.2567869223      -13.5324741433        1.9206737349
 C        -3.6025758825      -11.6432340372        2.8793873917
 C         2.4509068047       -8.3121757239        4.6478167113
 C         1.0544664212       -8.1615740783        6.7609611844
 H        -1.0650737691       -6.0863441806        6.0711475358
 H        -0.8845235660       -5.1581306644        4.5282406541
 H         0.4810380981       -5.3421484213        5.8123223940
 H        -0.6851504281      -10.1281627252        6.5685775090
 H         0.4816417911      -11.3882923978        5.9620533894
 H        -2.1040876770      -10.5283005664        4.7859662436
 H        -1.9761718436      -11.7749211920        5.9657257354
 H        -0.1693146713      -12.9062349856        0.8378460136
 H         0.7138266591      -11.7690520368        2.0046847912
 H        -0.2205970204      -10.4845047528       -0.5508596827
 H         0.6881531933      -11.9094536447       -0.9102256234
 H         3.1595638757       -6.9878638000       -2.3038413578
 H         2.3446145664       -6.9462317897       -0.7866155688
 H         0.8573118291       -6.1714005729       -3.3774906100
 H         1.6593315743       -5.0568833225       -2.2058619453
 H        -2.8412098030       -3.0140799236       -2.7077516264
 H        -3.9017404919       -4.4231995334       -2.8924542306
 H        -2.2269439537       -2.9416602580       -5.0063610426
 H        -3.9657202848       -3.1112018926       -5.1252192780
 H        -3.9821849947       -5.4808904900       -9.6800412819
 H        -2.5598218926       -4.8095450198       -9.9605680623
 H        -3.8125997202       -2.3737062787       -9.6816943367
 H        -5.1776497318       -3.5075037333      -10.1301043580
 H        -4.9064515164        0.7475568880      -13.1499671368
 H        -3.3661384345        0.4552055042      -14.0498474975
 H        -2.6178278685        1.7407318781      -11.5096332321
 H        -4.0679455360        2.6602240322      -12.1468956486
 H        -3.3237012448        4.8429172178      -15.2660521334
 H        -2.2074112558        6.0290682196      -15.3277076690
 H        -3.7293099877        7.7524590315      -14.2080618062
 H        -5.0400497169        6.5294242903      -14.1261210995
 H        -1.9807334835        8.9570843673      -16.4206362278
 H        -2.2127813834       10.2440616578      -17.6067186678
 H        -0.3002922194        9.1211287414      -18.5204319779
 H        -1.6513663217        8.8391105482      -19.4627666136
 H         0.0675058272        3.2215281086      -19.8538905540
 H        -0.9109271705        3.3714802156      -21.4705544761
 H        -2.4343873016        2.7937391524      -18.9942859709
 H        -1.4765177711        1.4881052120      -19.5673778859
 H        -6.6433008124        2.5357594147      -22.2191974797
 H        -5.2059746157        3.6171897049      -22.4994619679
 H        -7.2554676049        4.8116972511      -22.3092086460
 H        -5.9320560131        5.2806738967      -21.2961136910
 H       -10.4068784126        1.0436042763      -19.0460973066
 H       -10.9259607536        2.6253701877      -18.6394675780
 H        -9.8276964479        2.7004610060      -16.7450294200
 H        -8.3198468390        1.9743792926      -17.3178235490
 H       -10.4855960355        1.4596040879      -12.3006304903
 H        -9.7110626952        0.0108482037      -13.0405058065
 H       -11.4091997291        0.0957771411      -12.7237785380
 H       -13.0273468180        0.6375825116      -15.3105608385
 H       -12.6718667559       -0.4844254909      -16.6903186511
 H       -12.3768506233        1.1936228271      -16.9089970509
 H       -10.5021177054       -1.8185831657      -16.0564194853
 H       -11.6465604995       -1.6036318195      -14.8418993252
 H        -9.9137977345       -1.4331616626      -14.5222305364
 H        -9.9563287598        4.9456435162      -18.7484107346
 H       -11.1907284922        4.8483168941      -19.9788260831
 H       -10.0938515010        6.1278123708      -20.2884581617
 H        -8.7672357877        3.4914551548      -22.4776608448
 H        -9.7275923047        5.1136996583      -22.4544853660
 H       -10.5738651210        3.5744363720      -22.1464887851
 H        -5.9512001548        0.2561202581      -21.2924409918
 H        -4.4474904477       -0.4972036733      -21.4423975392
 H        -4.8353766989        0.7656505974      -22.5465746813
 H        -3.6918275365       -0.0541763384      -18.9447431498
 H        -5.3978132902        0.1613809740      -19.0019091400
 H        -4.3173981755        1.3008799732      -18.2216514519
 H        -0.2718253321        8.0926702037      -21.0027733287
 H        -1.4399264257        7.0723663131      -21.7605616626
 H         0.3366795779        6.6304137654      -21.7380742460
 H         1.5694024178        6.5429479889      -18.7097307800
 H         1.6585539259        5.3950436276      -20.1093346149
 H         0.8407014299        4.9991472893      -18.5456603053
 H        -5.8483993499        8.1269564866      -18.3156619563
 H        -6.0635964592        9.7993968894      -17.7713634435
 H        -6.8786013552        8.4735656291      -16.8921593684
 H        -3.7225609273        9.9554366771      -14.8604751278
 H        -5.4866318108        9.5714873827      -14.8945432978
 H        -4.8307243139       10.5867921000      -15.9788650946
 H        -0.3810856038        3.2127890845      -11.4667407169
 H        -1.6416703912        4.3354647510      -10.8888635398
 H        -0.1370175423        4.8320549128      -11.7302388166
 H        -0.7738815173        3.7522150499      -15.0264190214
 H         0.5436735725        3.9019440300      -13.9414485811
 H        -0.2366342085        5.3925400828      -14.5013572241
 H        -3.7457764276       -2.8068657145      -14.2488814565
 H        -4.7161565969       -1.3214521353      -14.4813781740
 H        -5.5880637743       -2.7417499073      -14.0861025515
 H        -6.4278598207       -0.7525770812      -11.7853549325
 H        -5.5960839257       -1.5683942656      -10.5574853227
 H        -6.4607121835       -2.5088098489      -11.8301463489
 H        -3.1787054077       -7.3719029546       -6.4037076905
 H        -1.7939586816       -6.5954467888       -7.3258851413
 H        -3.2208856446       -7.3357599674       -8.1472373181
 H        -5.0822242252       -6.4817665486       -5.9241309916
 H        -5.4671666898       -5.9552893435       -7.6126238801
 H        -5.5685537397       -4.7892074683       -6.5325688483
 H        -2.4079981448       -7.5036071829       -1.3080267442
 H        -1.7142990433       -7.3392351020       -2.8909933686
 H        -3.2294694477       -6.5234311704       -2.6560787468
 H        -3.2679470452       -4.7007737585       -0.8460282367
 H        -1.7300331052       -4.1384655908       -0.1003240583
 H        -2.3113539194       -5.6493539451        0.3269351805
 H         4.1556039514       -8.7849756233       -0.3494634567
 H         4.3681812115       -8.6733391988       -2.0673263437
 H         4.5543202379      -10.1125016582       -1.2270693191
 H         3.1005518534      -10.5397911621       -3.5337378562
 H         1.5638306113      -11.1071962079       -3.0816275941
 H         2.9583006752      -11.7074087720       -2.1156212394
 H        -2.8143441882      -14.1819624758        2.6252812692
 H        -1.2809820447      -13.9242373279        1.8196129184
 H        -2.8161255229      -13.5210360322        1.0447440081
 H        -4.0291637152      -11.5006807029        1.9069747223
 H        -3.6311989991      -10.6670549711        3.3702500642
 H        -4.1535404266      -12.4214481205        3.4006252724
 H         3.1102512469       -7.5199687190        5.0314625016
 H         2.4045269092       -8.3035804229        3.5714049250
 H         2.8996902468       -9.2492135620        5.0477275307
 H         1.2377148583       -9.1957068481        7.1490877541
 H         0.0509457334       -7.8992161809        7.0777394721
 H         1.7600511584       -7.4001542458        7.0136856710
 Na        0.2494861320       -8.4631807433        1.5343709493
 Na       -5.0918392571        5.7791638642      -18.9813380666
