232

 C       -18.7724482093      -12.3615167488        0.5921618566
 C       -17.7498236369      -12.5369856303       -0.5089426110
 O       -17.7573208473      -11.7181661393       -1.4312445836
 C       -16.8957843087      -13.8181842754       -0.5062523039
 C       -15.4431953570      -13.5949062169       -1.0408767704
 O       -15.1488185919      -13.9556280902       -2.1696373091
 C       -14.3729976806      -12.9207943123       -0.0755354686
 C       -13.1369935504      -12.4386506269       -0.8520482724
 C       -13.5742420154      -11.3915796133       -1.8699234002
 O       -14.5647651838      -10.7501655717       -1.8308258606
 C       -12.5567480660      -11.1558084870       -3.0572141460
 C       -13.4816831153      -11.1451281838       -4.3194724725
 O       -14.2179190817      -12.0977587132       -4.5172747738
 C       -13.4329838977       -9.8735915939       -5.2638341400
 C       -14.5697411067       -9.8828081080       -6.2754264691
 C       -15.7985021582       -9.1652776075       -5.7761973472
 O       -16.2770966938       -9.4955885488       -4.7119100125
 C       -16.3392450284       -7.9581500852       -6.6721290075
 C       -15.1371100766       -6.9385709823       -7.0833020557
 O       -14.2028528404       -6.9583568640       -6.3479399439
 C       -15.2531508417       -5.9805165706       -8.2737528788
 C       -14.3655436673       -6.5035692168       -9.4690416699
 C       -14.1836218896       -5.2910282922      -10.5096170419
 O       -15.1610981954       -4.7345912986      -10.9656270255
 C       -12.6677551690       -4.7842181602      -10.7171388741
 C       -12.2364268534       -3.8042295537       -9.4633619101
 O       -12.5372492336       -4.2212783739       -8.3386012110
 C       -11.6901585152       -2.4025855638       -9.7551979738
 C       -10.9730310328       -1.6330236601       -8.5884002755
 C       -10.4531717757       -0.2297841712       -8.8870382757
 O       -10.6394895424        0.2918147815       -9.9991204238
 C        -9.5392270532        0.4403443054       -7.7973765114
 C        -8.0682895068        0.0410556226       -8.2246478142
 O        -7.4421149386       -0.8926973673       -7.7737949463
 C        -7.4132971297        0.7593754332       -9.4435318711
 C        -5.8520021983        0.5921695689       -9.6035149177
 C        -5.2655843624        1.6974796787      -10.5084902570
 O        -5.6594253416        2.8408684019      -10.5696749703
 C        -4.2529067821        1.3166746993      -11.6980247816
 C        -3.1141935169        0.5546139956      -10.9614811585
 O        -3.0852271966       -0.6535125363      -10.8146799005
 C        -1.8912379802        1.3964050749      -10.3870136709
 C        -1.1266599656        0.6532819060       -9.3247887255
 C        -0.0545766771        1.5298488828       -8.7067649468
 O        -0.1320480961        2.7550152620       -8.6256914071
 C         1.4544302284        0.9971583048       -8.6264667008
 C         2.4616191758        2.1776512720       -8.9491782447
 O         3.0648756155        2.2951541032      -10.0100935074
 C         2.6761358293        3.1116939594       -7.7986232660
 C         3.8121752473        4.2328767492       -7.9049041477
 C         3.7974639105        5.0395056727       -9.2627747879
 O         2.8511937121        5.7321368490       -9.5913830295
 C         4.9404249790        4.9621421456      -10.3375845937
 C         4.3552779911        4.6088638785      -11.7354119878
 O         4.9038474562        3.8122610873      -12.4111740613
 C         3.1408997776        5.2911978154      -12.3967133214
 C         3.6593953155        6.5223228843      -13.2856324476
 C         3.7993872364        6.1898621720      -14.8231469595
 O         3.9836968182        5.0611737494      -15.1646732668
 C         3.6405865542        7.2846072461      -16.0124811896
 C         4.9977529499        6.9360210164      -16.8850195463
 O         4.9627108726        6.5074663394      -17.9948140298
 C         6.3835805785        7.5356029975      -16.2248718569
 C         7.6398441608        6.7972918513      -16.7776253478
 C         7.6454474689        5.3603521465      -16.2807530060
 O         7.0956957571        5.0173949837      -15.2546576962
 C         8.1872242714        4.2344123078      -17.2618762028
 C         9.5198352793        3.6547981370      -16.7871956746
 O         9.6986523194        3.5530208000      -15.6195867179
 C        10.6986369785        3.5830528386      -17.8429387996
 C        11.6372542216        2.4280943415      -17.3878324476
 C        10.8180138579        1.1511849423      -17.4207965141
 O         9.7578825558        1.1382204490      -18.0001252159
 C        11.1316224595       -0.1462230294      -16.7038601044
 C        10.8156765756       -0.0559612241      -15.1272308011
 O        11.4362778682       -0.6975754179      -14.3045239376
 C         9.6404163357        0.7703085740      -14.6680884441
 C         8.8029332729        0.0178338331      -13.5757375861
 C         7.4624995707        0.6345220471      -13.3228240884
 O         7.2723585918        1.8272581540      -13.5198315588
 C         6.2328128868       -0.2206734221      -13.1200993454
 C         5.5365567689       -0.2448737330      -14.5059119107
 O         5.6836170984        0.6770037001      -15.2463832020
 C         4.5209427021       -1.3878019136      -14.7445051911
 C         6.5227954716       -1.6937390728      -12.6513974205
 C         5.3457882991        0.4850323510      -12.1100622413
 C        10.2185878208       -1.2164958818      -17.1654730339
 C        12.5688843796       -0.5716191060      -16.7997952548
 C         7.2725030773        2.9877408458      -16.9970867399
 C         8.0894387059        4.7184635277      -18.7830953330
 C         2.4176560269        6.9116890764      -16.9109531795
 C         3.6598934622        8.7044495766      -15.5280715788
 C         5.6726131645        6.2762424930      -10.2407241075
 C         5.8640599412        3.7978870727       -9.9888043896
 C         1.5835764477        0.4334961206       -7.1995362377
 C         1.7138073768       -0.1876372494       -9.7168297526
 C        -4.8349951224        0.3397215043      -12.7643401516
 C        -3.7789998032        2.5984232187      -12.3996962624
 C        -9.9030169453        1.9803252786       -7.9207032551
 C        -9.6122953938        0.0452361021       -6.2768651997
 C       -11.7592929144       -6.0285637470      -10.6744100119
 C       -12.6402845746       -4.1195531280      -12.0707844158
 C       -16.9078400714       -8.5915828092       -7.9640556383
 C       -17.4648434541       -7.2018695882       -5.9060268829
 C       -11.7272943387       -9.8828105655       -2.8068572176
 C       -11.5273495490      -12.3084609276       -3.3202885064
 C       -16.7698475100      -14.3333514873        0.9504028729
 C       -17.7193814143      -14.7813614872       -1.4298747980
 H       -18.4568465596      -12.8855836910        1.4845580337
 H       -19.7013932469      -12.7466331763        0.1666208236
 H       -18.9601283189      -11.3027423355        0.8017284486
 H       -14.1378711483      -13.6285139867        0.7069093218
 H       -14.8023002541      -12.0860568202        0.5619104495
 H       -12.6053796829      -13.3479135958       -1.1874011051
 H       -12.4423994868      -11.9817308230       -0.0820985094
 H       -12.4261912168       -9.9626042385       -5.6337948318
 H       -13.4236899623       -8.9229958209       -4.6544384598
 H       -14.7098127504      -10.9692921530       -6.4810068294
 H       -14.1958398021       -9.4396623689       -7.2262344051
 H       -14.8519297796       -5.0159045153       -7.9025296220
 H       -16.2503819723       -5.7460336262       -8.6640060832
 H       -14.9451611167       -7.2635638426       -9.9827040599
 H       -13.4758128272       -7.0642296242       -9.0812428625
 H       -12.5704826917       -1.9281541887      -10.1392781794
 H       -11.0582607117       -2.3700852205      -10.6747037111
 H       -10.0721563832       -2.2409801788       -8.2708761363
 H       -11.6645760705       -1.5732321236       -7.7715095087
 H        -7.6140398296        1.7686504953       -9.6316686291
 H        -7.8725302909        0.1982549734      -10.2486637325
 H        -5.6330974072       -0.2577759688      -10.2397846464
 H        -5.2494638331        0.5165625554       -8.6576116007
 H        -2.3165252243        2.2940128277      -10.1615383403
 H        -1.3292351857        1.5040058371      -11.3514112931
 H        -0.6279688638       -0.2043555581       -9.6912701183
 H        -1.7970363590        0.3838941050       -8.4766568581
 H         2.8858346262        2.5600008098       -6.9147459278
 H         1.7652451350        3.6252544865       -7.7108735601
 H         4.8534562901        3.9263362377       -7.7121271506
 H         3.5572172210        4.8717837073       -6.9988540649
 H         2.5511266646        5.7578659903      -11.6339424534
 H         2.6450375221        4.5475947002      -12.9906260098
 H         4.6129832761        7.0349702413      -13.0025243733
 H         2.8624316973        7.3365136748      -13.1932218592
 H         6.2126530120        7.3872449962      -15.1831349384
 H         6.3182182587        8.5899309224      -16.4757821481
 H         8.5054770752        7.3574372396      -16.1590639390
 H         7.7230178568        7.0550248121      -17.8000991493
 H        11.2723131766        4.4762830372      -17.7305870655
 H        10.3555155098        3.4944713908      -18.8642038508
 H        12.0232483703        2.7420024078      -16.3481134052
 H        12.5916152811        2.3341888058      -17.9408098456
 H         9.0658278077        1.1751470311      -15.4658261431
 H         9.9761041808        1.7475725117      -14.2070096517
 H         9.3683462819       -0.0171278629      -12.6221773336
 H         8.5908159798       -1.0098255397      -13.7521830541
 H         4.9000604077       -2.3828013268      -14.6124852519
 H         4.0230020829       -1.4171295679      -15.7088790393
 H         3.7934803492       -1.1906004512      -14.0734809235
 H         5.6363351553       -2.2915298663      -12.4239159158
 H         7.2495514726       -1.8121788194      -11.8728941083
 H         6.8932495421       -2.1663158727      -13.5452435769
 H         5.8440421247        0.8428874432      -11.2128047404
 H         4.5833275773       -0.0872533907      -11.7085520747
 H         4.9332895007        1.4567967236      -12.4582022802
 H        10.3737442353       -1.2882846212      -18.2341164897
 H         9.1990037575       -0.8514606419      -17.1470619087
 H        10.4178382742       -2.0623283285      -16.5862784001
 H        12.8986079690       -0.8862288745      -17.8214480987
 H        12.7262437756       -1.4772550331      -16.1583781942
 H        13.2781892167        0.2071539355      -16.4577426959
 H         7.4475234979        2.5766638959      -16.0022760530
 H         7.5224238628        2.2393765744      -17.6395848006
 H         6.2590660133        3.1653035278      -17.2371514554
 H         8.9487359444        5.3892108940      -19.1456361259
 H         7.2308539788        5.2313984499      -18.8987758378
 H         8.2506359590        3.7084191208      -19.2855632258
 H         1.4511507673        7.3081637837      -16.5710886258
 H         2.3899396119        5.8404393267      -17.2570077679
 H         2.5335312793        7.3644174421      -17.9097313782
 H         3.7448101908        9.3596043613      -16.4451860981
 H         4.5362844960        9.0041926758      -14.8582312573
 H         2.6852175214        8.9061225383      -14.9790675381
 H         6.4070748964        6.3522417516       -9.4268162491
 H         5.2181032502        7.2206437390      -10.2647609684
 H         6.4683312410        6.3871955072      -11.0090175910
 H         6.6564225589        3.7190564360      -10.6335988184
 H         5.4158394199        2.8242359495       -9.8946104081
 H         6.4744392612        4.0525942776       -9.1329461756
 H         1.2028473314        1.1798863565       -6.4366872508
 H         2.6035460799        0.2463354119       -6.9705951436
 H         1.1189314742       -0.5240065378       -7.1872710809
 H         1.2580004408       -1.1257904763       -9.4771339144
 H         2.7799307443       -0.2755394640      -10.0762278462
 H         1.1828931054       -0.0143691757      -10.6810584464
 H        -4.8802756494       -0.6643894836      -12.4055818077
 H        -4.1669432748        0.4033683763      -13.5523307763
 H        -5.8810955552        0.5031864173      -13.0986090754
 H        -3.0220866485        2.4729215882      -13.1526881684
 H        -3.4522752029        3.3872844546      -11.6685000298
 H        -4.7118700092        2.9830880446      -12.8526364772
 H       -10.9533172720        2.1233163994       -7.6023601233
 H        -9.9781231152        2.4566047980       -8.8626690405
 H        -9.2677728385        2.4537122683       -7.2455844195
 H       -10.4786759497        0.4532969334       -5.8471215183
 H        -8.8053529674        0.4057205821       -5.6598342138
 H        -9.6708895462       -1.0303818704       -6.1138955169
 H       -10.6770720851       -5.6931077076      -10.5216363834
 H       -11.7842804086       -6.7237992938      -11.5293301652
 H       -11.9709613934       -6.5152370428       -9.6984127298
 H       -12.6397836078       -4.8333107864      -12.8650784717
 H       -11.7875195534       -3.5042681205      -12.1559218582
 H       -13.5720371672       -3.4704521551      -11.9896372997
 H       -16.2309284509       -9.1852062489       -8.5754587093
 H       -17.1727834632       -7.8035334000       -8.6522111168
 H       -17.7402241609       -9.1316527902       -7.7027664953
 H       -17.1402067098       -6.7563550138       -4.9152885283
 H       -18.1985088911       -7.9745243726       -5.6970588101
 H       -17.7728091043       -6.5041586463       -6.6158023663
 H       -12.3542849166       -9.0649577771       -2.6516678389
 H       -11.0129032412       -9.7794802354       -3.6189580177
 H       -11.1308004414      -10.2090206880       -1.9480976152
 H       -12.1330008585      -13.2603813068       -3.5449993788
 H       -10.7165551589      -12.4141980731       -2.5109711520
 H       -10.9067847763      -12.0613176956       -4.1982272528
 H       -16.3860211239      -13.5628281292        1.6722207239
 H       -16.0374198586      -15.1526581358        0.9877809608
 H       -17.6470981155      -14.8145696480        1.2524158950
 H       -17.1659037249      -15.4019792016       -2.1344680938
 H       -18.5286710689      -14.2781790860       -1.9355160181
 H       -18.1462809648      -15.4514624566       -0.7519409358
 Na      -16.1835500896      -11.4102083925       -3.2635295851
 Na        5.4265719522        3.2767313851      -14.5360973191
