232

 C        -0.4240739779       -6.0293392911        5.4992843469
 C         0.2736826311       -7.0021065975        4.5512315737
 O         0.2094480619       -6.8869138409        3.3638713044
 C         0.9941698562       -8.1726041872        5.1421847945
 C         0.3174166021       -9.6493419174        4.8527490044
 O         0.2063250257       -9.9056546985        3.6994609853
 C        -0.2919903948      -10.5481273373        5.9250244178
 C        -1.5175412713      -11.3386035859        5.1991435397
 C        -1.1864043636      -12.2491517981        3.9801573564
 O        -0.3537759342      -13.1050540320        4.1143808093
 C        -2.0670070909      -12.1940471387        2.6970251382
 C        -1.3061021539      -11.1578534844        1.6915363239
 O        -1.6919572442       -9.9415586210        1.6452978046
 C         0.0578842467      -11.7113271473        0.9719174525
 C         0.3734422990      -10.9789920433       -0.3249790453
 C         1.6832376000      -10.1886364548       -0.2265861966
 O         2.1491809696       -9.9244780814        0.8569832841
 C         2.3917411297       -9.7653433505       -1.5768654724
 C         1.5498646404       -8.6451310150       -2.1362355464
 O         0.4647257906       -8.8817498841       -2.6059317495
 C         2.0723122944       -7.2120767271       -2.0625652895
 C         1.0080791476       -6.1707634706       -2.4592141710
 C        -0.1693265863       -6.1914035027       -1.4498099727
 O        -0.0924806132       -6.7558573749       -0.3715136160
 C        -1.5332876710       -5.7605233598       -1.9298208832
 C        -1.5033281467       -4.5434052423       -3.0028825789
 O        -0.5263265121       -3.8652271491       -3.1483635562
 C        -2.8235245044       -3.7388623498       -3.3969124142
 C        -2.9742933816       -3.6101292584       -4.8778371181
 C        -2.5552782922       -4.8971017573       -5.6261208315
 O        -1.9049649305       -5.7181629795       -4.9544585547
 C        -3.2318145082       -5.2477521585       -6.9354376829
 C        -3.1481476299       -4.1287336775       -8.0282924090
 O        -2.9152825537       -2.9778084839       -7.6206989607
 C        -3.3164566443       -4.4685306460       -9.5638885170
 C        -4.0953447044       -3.3056994824      -10.1460176864
 C        -4.0887170286       -3.1503555850      -11.7108785937
 O        -3.5755053770       -4.0025417377      -12.3361643514
 C        -4.6824947208       -1.7683935885      -12.3019834629
 C        -3.6885709081       -0.5644380302      -11.9702592748
 O        -2.9853524325       -0.5839233505      -10.9754005778
 C        -3.7391053352        0.6402845158      -13.0086889321
 C        -3.1054813045        1.9112510520      -12.4624584257
 C        -2.3546447664        2.7160330563      -13.5453584229
 O        -2.2100667062        2.2974384917      -14.6600875520
 C        -1.6197466258        4.1223947170      -13.0407638761
 C        -2.5952907531        5.3049009859      -13.1670942487
 O        -3.1378063977        5.8360842788      -12.2326376217
 C        -3.1203239939        5.7580089146      -14.6031038389
 C        -4.0926605767        6.9147459712      -14.6599563361
 C        -4.5207979769        7.1994520719      -16.0776501685
 O        -4.7567632213        6.3206517920      -16.8451316434
 C        -4.6367507418        8.6455569871      -16.6310265335
 C        -3.4726761887        8.6007819401      -17.9145574665
 O        -3.7970449288        8.0492746091      -18.9374905976
 C        -2.0818004770        9.1412614952      -17.7065291016
 C        -1.1382594004        8.4855070152      -18.7722957139
 C        -1.1578335709        7.0988625498      -18.5821200024
 O        -1.5582620691        6.6482831113      -17.5268449971
 C        -0.5695682437        6.1054689881      -19.6853573081
 C        -1.5984662976        4.8644752380      -19.6851164135
 O        -2.7875780539        5.0589971017      -19.6917952553
 C        -0.9618381942        3.5598103400      -20.0295687450
 C        -1.8856896121        2.3599011918      -19.6539066638
 C        -3.0711576427        2.2362129951      -20.7181986682
 O        -2.9926285327        2.6005391024      -21.8586678804
 C        -4.4698904183        1.4355641904      -20.2973153010
 C        -5.4429131302        2.6706101493      -20.1883326561
 O        -5.4103777460        3.2444668794      -19.0910511596
 C        -6.1619531220        3.0668648614      -21.4439745086
 C        -6.7802310021        4.5332378719      -21.4666534682
 C        -7.8250236173        4.7609502596      -20.3824642872
 O        -7.5241526921        5.5254334190      -19.4529722071
 C        -9.2237517097        4.0882577487      -20.3489407085
 C        -9.3033330136        2.6038111779      -19.9684087880
 O        -8.5476582086        1.8573270603      -20.5104113828
 C       -10.2519467304        2.1173770716      -18.8196217658
 C        -9.4705017424        1.7453037549      -17.4571511138
 C        -9.8607089967        0.3992106153      -17.0073911747
 O        -9.5067399539       -0.6197331459      -17.5777275094
 C       -10.9438346853        0.1844189216      -15.7290135341
 C       -10.7665851150        1.1057758456      -14.4391318804
 O       -10.7233343148        2.2837896392      -14.7657550143
 C       -10.5011552375        0.5437317245      -13.0121976688
 C       -12.2345166648        0.6607567470      -16.4127447136
 C       -11.0346155090       -1.3113100080      -15.3265830025
 C       -10.2213275987        4.9484000348      -19.4753323415
 C        -9.7734799698        4.2010590965      -21.9016722850
 C        -4.7122909736        0.3920030877      -21.4787674217
 C        -4.2228361684        0.7819869375      -19.0001352567
 C        -0.4919821009        6.7960307920      -21.1901403818
 C         0.8861733606        5.7219015696      -19.4590578480
 C        -6.0834481740        8.8664338005      -17.2842255060
 C        -4.3107189633        9.8701929716      -15.6252524270
 C        -1.2091370391        4.1263017847      -11.5076340576
 C        -0.4384587155        4.3304965703      -13.9760726906
 C        -4.8641642242       -2.0595951300      -13.8240800019
 C        -6.0988151229       -1.3570636555      -11.7146672835
 C        -2.5569605712       -6.4951256185       -7.5828025558
 C        -4.7756504019       -5.4417599983       -6.6567952214
 C        -2.4647279363       -6.9036872136       -2.5999845597
 C        -2.3042280829       -5.1765847860       -0.5894483707
 C         3.8359934763       -9.3807000430       -1.2266234411
 C         2.3644246842      -10.9062206457       -2.5879213142
 C        -2.1450647777      -13.6283642121        2.0943563542
 C        -3.4718938586      -11.7607838649        2.9918867598
 C         2.3977209377       -8.0331790960        4.4721095620
 C         1.2978254846       -8.0756822697        6.7308140372
 H        -1.2071233929       -6.5084815368        6.0326536361
 H        -0.8368337979       -5.2688172055        4.9238874991
 H         0.2234109390       -5.6273803460        6.3293395568
 H        -0.6403224219       -9.9133246648        6.7628621153
 H         0.4236590022      -11.2689948783        6.3061544312
 H        -2.2939245496      -10.4968538570        5.0307080009
 H        -1.9208660146      -12.1026601781        5.8777383761
 H        -0.1826928343      -12.7786942008        0.6985267652
 H         0.8998893267      -11.6299747126        1.6266116748
 H        -0.4176290683      -10.2143690560       -0.5836825557
 H         0.4451889465      -11.7552661280       -1.1761507184
 H         3.0503368752       -7.1490720856       -2.6133898962
 H         2.3109079324       -7.0576831750       -0.9658197408
 H         0.7112817286       -6.4289875835       -3.4534015649
 H         1.5646230174       -5.2194028708       -2.4554025386
 H        -2.8392656197       -2.7811926274       -2.7460234750
 H        -3.7102244474       -4.2754997852       -3.0775304031
 H        -2.4537110162       -2.6826417335       -5.2437897456
 H        -4.0466274010       -3.4348697966       -5.0342336133
 H        -3.9012137778       -5.3741978644       -9.6401871940
 H        -2.4271388409       -4.8084070330      -10.0804164724
 H        -3.6021284758       -2.4480756551       -9.7619561545
 H        -5.0157605552       -3.4266396616       -9.6190691657
 H        -4.8353761568        0.7734834333      -13.2631961167
 H        -3.1525951548        0.3110102681      -13.8413206455
 H        -2.3860823876        1.6599554227      -11.8011621871
 H        -3.8399588987        2.4548803122      -11.9224173410
 H        -3.4323576517        4.7995454218      -15.0983557726
 H        -2.3201633269        6.0315325167      -15.2986958987
 H        -3.5695509638        7.8410428691      -14.2217959278
 H        -4.9564004558        6.5993734205      -14.0422837057
 H        -1.7582152641        9.0642902339      -16.6742766388
 H        -2.1088255278       10.2001010855      -17.9692435829
 H        -0.1335257154        8.8208980495      -18.7330469738
 H        -1.4992655471        8.7570059286      -19.7992565118
 H        -0.0218865924        3.4412527772      -19.5795856189
 H        -0.8446012020        3.6295671840      -21.1107145063
 H        -2.0372425700        2.4487227905      -18.6072394837
 H        -1.2789193565        1.4184745780      -19.7902612857
 H        -6.9754041951        2.2876211577      -21.4605943837
 H        -5.5337937979        3.0008594167      -22.2819005676
 H        -7.2340613351        4.8193014930      -22.4037402244
 H        -5.9055983201        5.2373084339      -21.2443401971
 H       -10.7333536039        1.2022556443      -19.0673353784
 H       -11.1019606698        2.9058834498      -18.5905631099
 H        -9.6963925243        2.5014269311      -16.6982384893
 H        -8.3730461224        1.6719026308      -17.5630100658
 H       -10.7162118767        1.3634674608      -12.3720978056
 H        -9.4456933657        0.1467646746      -12.9395539696
 H       -11.2146238850       -0.2941754481      -12.8319655684
 H       -13.0973178796        0.2839278196      -15.8616953770
 H       -12.3264557994        0.3909223167      -17.4110055431
 H       -12.2287790433        1.7850935726      -16.4152374366
 H       -11.0680549531       -2.1027964043      -16.1472856192
 H       -11.8330874436       -1.6238753676      -14.6387948049
 H       -10.1141378076       -1.6050863381      -14.8427565602
 H        -9.9980836928        4.8498231896      -18.3989338894
 H       -11.2172841594        4.6025758904      -19.5861560674
 H       -10.1942336484        5.9293244944      -19.7744428858
 H        -9.3308252864        3.3566963779      -22.4419368869
 H        -9.5737140991        5.1101844862      -22.3598668355
 H       -10.8311423926        4.2335084393      -21.8594697000
 H        -5.6826512774       -0.0690431072      -21.5020305608
 H        -3.9483626479       -0.3609996319      -21.3157052711
 H        -4.5112227437        0.7310276392      -22.4710168757
 H        -3.3297548350        0.1176575821      -18.9711956031
 H        -5.1048294784        0.0783599611      -18.7523129770
 H        -4.0768715277        1.5077487994      -18.2147934532
 H         0.3120199995        7.4574428723      -21.3352923452
 H        -1.3639508794        7.4069444669      -21.2041763130
 H        -0.5274128290        6.1496682504      -21.9978418310
 H         1.6298811463        6.4580460625      -19.7795800811
 H         1.0849717912        4.8945369935      -20.1061182702
 H         1.1880623159        5.4573071205      -18.4208997834
 H        -6.2167180389        8.5024196755      -18.2554895002
 H        -6.1705973379        9.9480002072      -17.4467608750
 H        -6.8014895681        8.3929588746      -16.6057494618
 H        -3.3121705990        9.9170952148      -15.3139257704
 H        -5.0516973194        9.9309754164      -14.7260131880
 H        -4.3866929718       10.8976143070      -16.1151071089
 H        -0.6905030793        3.1619058551      -11.3095210091
 H        -2.1686565936        4.0956270116      -10.9543418092
 H        -0.4881135867        4.8357834709      -11.1530154352
 H        -0.5210210822        3.9360947308      -14.9988355337
 H         0.4153629478        3.8420725380      -13.5205914398
 H        -0.1940226545        5.3543165883      -13.9158638899
 H        -3.9954008360       -1.9460716389      -14.3246156741
 H        -5.6207457040       -1.5109448229      -14.3936157591
 H        -5.0806393519       -3.0698815749      -13.9196306410
 H        -6.5445182864       -0.5577660405      -12.3288144963
 H        -6.0149996940       -0.7161095360      -10.8296915988
 H        -6.7634661296       -2.2131488395      -11.6376590873
 H        -2.5030974132       -7.3830539920       -6.9451724037
 H        -1.6846273764       -6.0466781539       -8.0248781908
 H        -3.2252884048       -6.8172104149       -8.4072057028
 H        -4.8481367163       -5.9665911009       -5.7002775921
 H        -5.3773563967       -5.9283428369       -7.4665324499
 H        -5.2414601089       -4.4571439053       -6.6916981105
 H        -2.6095932092       -7.7008480493       -1.8966372961
 H        -1.8015458130       -7.3379580680       -3.4118720011
 H        -3.3759635696       -6.3897439700       -2.9543026428
 H        -3.3687337120       -5.0062141117       -0.7386556841
 H        -1.7049593438       -4.3374687426       -0.2253933327
 H        -2.1573625591       -5.9975546422        0.1697178082
 H         3.9810805784       -8.4476235111       -0.6957382469
 H         4.6204770366       -9.3163958120       -2.0180958374
 H         4.2103345401      -10.0982994630       -0.4632479886
 H         2.7880950783      -10.7473926869       -3.5401238014
 H         1.2949499936      -11.1687305150       -2.7875766213
 H         2.8530143537      -11.7518090584       -2.1087386362
 H        -3.0378302669      -14.0920265825        2.4958005377
 H        -1.1959096719      -14.2216571842        2.2132483377
 H        -2.4052454515      -13.4762170498        0.9891163543
 H        -4.0469385618      -11.5997267211        2.0439499924
 H        -3.5429194085      -10.8138292039        3.5271933557
 H        -3.8553432170      -12.5933295526        3.6025339202
 H         2.8698401315       -7.1121858386        4.9471164211
 H         2.2846350581       -7.8341071447        3.3610795945
 H         3.0301566788       -8.9348942044        4.6666212102
 H         1.8514991344       -8.9356907262        6.9411840707
 H         0.3969158410       -8.1631090520        7.2864120908
 H         2.0046829569       -7.2396458864        6.8494745493
 Na        0.3480605473       -8.3963716770        1.4678771723
 Na       -4.9129268517        5.8751866919      -19.1141347691
