232

 C        -0.7332156490       -6.3976208494        5.5351766364
 C         0.2868345746       -7.0836631418        4.5005278118
 O         0.3454501626       -6.6736456430        3.3904050440
 C         1.2261043237       -8.2633104930        5.0793679596
 C         0.3558386135       -9.4645716994        4.6235247840
 O         0.3137643295       -9.8173317508        3.4901543934
 C        -0.1994624977      -10.3130400702        5.7705293188
 C        -1.4234816290      -11.0928505505        5.2557884172
 C        -1.0117017668      -11.9254972127        4.0074154975
 O        -0.0036223010      -12.5770392370        4.0340812985
 C        -1.9125088081      -12.0726195067        2.7226900801
 C        -1.2163707663      -11.1085464558        1.7289096028
 O        -1.4992548225       -9.9381830502        1.6917945586
 C        -0.0219828434      -11.7225565219        0.9636934644
 C         0.2075520170      -10.9787449838       -0.3781615764
 C         1.5567774064      -10.1932121947       -0.3035712362
 O         1.9307951527       -9.5441538382        0.6789211395
 C         2.3732294727       -9.9881346821       -1.6496951294
 C         1.4094451025       -8.9380968057       -2.3590817438
 O         0.2562051578       -9.2503213693       -2.6106079073
 C         1.9573599357       -7.4506382169       -2.4443928698
 C         0.7361260878       -6.5224259664       -2.5808555427
 C        -0.3133093436       -6.6036364586       -1.4934270102
 O        -0.2358425344       -7.2146234605       -0.4407204009
 C        -1.6572810279       -5.7806542671       -1.9009022823
 C        -1.4546857987       -4.4541572635       -2.7613345725
 O        -0.4189661567       -3.8523666647       -2.7334779413
 C        -2.6852442661       -3.7833748937       -3.4018580977
 C        -2.5781733361       -3.6031654889       -4.9302408495
 C        -2.1464330371       -4.7427035768       -5.7553809012
 O        -1.1560031751       -5.4216836678       -5.4521112306
 C        -2.9634472395       -5.0386318145       -7.1113237272
 C        -2.9668941262       -3.8364437139       -8.0646548637
 O        -2.6231852852       -2.7109689059       -7.6905595767
 C        -3.2914445572       -4.0190404706       -9.4659717529
 C        -4.3816199218       -3.0150284409      -10.0229294932
 C        -4.3214564418       -2.9571456973      -11.6358163317
 O        -3.8674490006       -3.8672612253      -12.2109813626
 C        -4.9406916535       -1.6837181362      -12.3543321781
 C        -3.8445872458       -0.5383344030      -12.1073092631
 O        -3.2493677427       -0.4033998820      -11.0277105434
 C        -3.5120455466        0.5211207112      -13.1829653469
 C        -2.7659661662        1.6240050914      -12.3971400627
 C        -2.3079212491        2.7013625261      -13.3814044153
 O        -2.2419646769        2.4073375297      -14.5639191286
 C        -1.7466235486        4.1043592319      -12.8155652317
 C        -2.8298957046        5.2103089955      -13.1685441538
 O        -3.4691406650        5.7192351947      -12.2745052003
 C        -3.0613222214        5.5153753530      -14.6743155239
 C        -3.8314846357        6.9531131546      -14.7214566377
 C        -4.4307268559        7.1640901604      -16.1028468808
 O        -4.8836700666        6.2470014408      -16.7369287837
 C        -4.3774200174        8.6379355009      -16.7791640492
 C        -3.4705811205        8.6017623176      -18.1157781270
 O        -3.9069975136        8.0347651028      -19.0963735453
 C        -2.2316244754        9.4037419766      -18.3915475516
 C        -1.1550599963        8.6292943950      -19.0329063996
 C        -1.1966528207        7.1392250824      -18.5780730020
 O        -1.3902397893        6.7734990602      -17.4233597955
 C        -0.7978147527        6.0826352028      -19.6661814817
 C        -1.6697722910        4.7719555092      -19.5822700927
 O        -2.8533981103        4.7810869640      -19.5918672305
 C        -0.9163756563        3.4522637449      -19.5702637413
 C        -1.9032606722        2.2957503582      -19.3346927054
 C        -3.0452992920        2.2635949668      -20.3815361146
 O        -2.8826788223        2.7215880114      -21.5006984803
 C        -4.3464347590        1.5174797113      -20.0739406742
 C        -5.4107317520        2.6594077722      -20.0196492821
 O        -5.5187647019        3.3666625640      -19.0378483391
 C        -6.0605416542        2.9765394829      -21.4317057208
 C        -6.9728381644        4.2372172879      -21.5072280091
 C        -7.8271324731        4.5909921398      -20.2634581499
 O        -7.4252947081        5.5092221430      -19.5214781030
 C        -9.2722393913        4.1463802474      -20.0542835781
 C        -9.3567368799        2.6396595134      -19.7286389751
 O        -8.5125015129        1.9841239113      -20.2802439402
 C       -10.4180660484        2.1004765098      -18.8126668905
 C        -9.5876109615        1.5183858047      -17.6827979846
 C       -10.1128064534        0.2274181289      -17.1388066329
 O        -9.6533670396       -0.8138229232      -17.5560456766
 C       -11.2538167630        0.1173435849      -16.0764923221
 C       -10.5910467120        0.8754086089      -14.8922955526
 O       -10.2133695197        2.0482692664      -14.9663439203
 C       -10.4320933262        0.3228733939      -13.5232082773
 C       -12.5315970311        0.8693852744      -16.5223059612
 C       -11.3903437295       -1.3588141179      -15.6997064196
 C        -9.9302579305        5.1684374214      -19.0496921930
 C       -10.0974232617        4.2693667129      -21.4133756896
 C        -4.7325355407        0.4990566026      -21.1176948694
 C        -4.2690354209        0.8521941339      -18.6552127342
 C        -0.9316655637        6.5741869372      -21.1975794531
 C         0.6767759224        5.9412509564      -19.3765996407
 C        -5.8853008040        8.9911048609      -17.1819274064
 C        -3.7615744526        9.6961835099      -15.8002999692
 C        -1.4482309559        4.0222259777      -11.2450798420
 C        -0.3932795927        4.3798565841      -13.5032161643
 C        -5.0464608782       -1.8047968949      -13.8629973308
 C        -6.2513527202       -1.2633734165      -11.6798121822
 C        -2.2767623452       -6.2514752268       -7.7410242482
 C        -4.4493865302       -5.5049123339       -6.9147065334
 C        -2.4449767991       -6.7631949932       -2.8169499680
 C        -2.5346519258       -5.4729470889       -0.6865883688
 C         3.7953670264       -9.6361096494       -1.2192595589
 C         2.3663617979      -11.2964903642       -2.5137826739
 C        -1.8837589829      -13.5649947763        2.3898395608
 C        -3.3566855269      -11.7178108365        3.0878916955
 C         2.7186807935       -8.3062472974        4.2995367063
 C         1.5209115372       -8.1887840651        6.5797800058
 H        -1.1403266331       -7.0646872953        6.3460579793
 H        -1.4728304180       -5.8408554377        5.0023694248
 H        -0.1914849439       -5.5636858767        6.1180665357
 H        -0.3414867173       -9.7943703724        6.7648983130
 H         0.5854130421      -11.0879323841        5.9150969354
 H        -2.2030489351      -10.3686271873        5.0636732289
 H        -1.7179521185      -11.7941079717        6.0072642198
 H        -0.4290002108      -12.7785994456        0.7073675276
 H         0.9327030877      -11.7511132144        1.6009848742
 H        -0.5907600280      -10.3372588199       -0.6161163153
 H         0.2904209798      -11.6795638918       -1.1718964618
 H         2.6554806261       -7.4150076566       -3.2733656743
 H         2.3835220847       -7.2362948739       -1.4535774991
 H         0.2519778393       -6.7503198875       -3.5397582720
 H         1.1102525312       -5.4996249046       -2.5932755117
 H        -2.9202779406       -2.9064243534       -2.7981765563
 H        -3.5735301533       -4.3906782079       -3.1952130542
 H        -1.7570996913       -2.8540574106       -5.1692891289
 H        -3.5088128649       -3.2597252058       -5.2994165097
 H        -3.5714495904       -5.0693588650       -9.6398444688
 H        -2.3594169543       -3.8995313332      -10.0651261139
 H        -4.2671439954       -2.0611015367       -9.4685070547
 H        -5.3466405061       -3.4561053345       -9.7405579151
 H        -4.4443376268        0.9319308977      -13.7098297522
 H        -2.7545233953        0.1390783592      -13.8699465139
 H        -1.9556320240        1.2514554917      -11.7786924108
 H        -3.5063494278        2.1609257618      -11.7314939156
 H        -3.7269002533        4.7071429321      -14.8848689160
 H        -2.2261026823        5.3730140315      -15.4393982315
 H        -3.0740374889        7.7441731602      -14.6410842702
 H        -4.4154360673        6.9898447969      -13.8163298877
 H        -1.8581479722        9.9127021845      -17.5425545780
 H        -2.5269404089       10.2105227213      -19.0804732911
 H        -0.2151644156        9.1492412353      -18.8527075915
 H        -1.3469866329        8.6783371380      -20.0915383812
 H        -0.2073451120        3.5633476221      -18.6985514269
 H        -0.3131036828        3.1986582616      -20.5233040557
 H        -2.1819798605        2.2940829328      -18.3027984724
 H        -1.2621411097        1.4215946776      -19.4380132143
 H        -6.6112809633        2.1449762965      -21.8760986778
 H        -5.1511660545        3.2668091637      -22.0491422260
 H        -7.5933814071        4.2863428351      -22.3748890884
 H        -6.3492013294        5.1160910462      -21.6048040201
 H       -10.8336985847        1.3049143467      -19.3486693907
 H       -11.1655505430        2.9196372659      -18.5744832166
 H        -9.5257859410        2.2303915777      -16.8218534708
 H        -8.6088652312        1.3556935650      -18.0182618901
 H       -10.6552267816        1.0941295088      -12.8935056362
 H        -9.3823755005       -0.0429553206      -13.3603921923
 H       -11.0997471069       -0.4811924980      -13.4428248611
 H       -13.2648562477        0.8740454450      -15.6976385529
 H       -12.9411594827        0.3486979451      -17.3876297186
 H       -12.3309475484        1.9460788201      -16.7489597992
 H       -11.6177917131       -2.0863235743      -16.4976440764
 H       -12.1939957868       -1.4847453063      -14.9704837313
 H       -10.5288898469       -1.7621850369      -15.2119066526
 H        -9.6268812800        5.2645658361      -17.9806351657
 H       -11.0358796781        4.9045356796      -19.0908213968
 H        -9.6869154043        6.1477206031      -19.4365307480
 H        -9.6150869961        3.7311023856      -22.3052550197
 H       -10.1964969752        5.3516082219      -21.5898517337
 H       -11.1354466809        3.9695713740      -21.1638560306
 H        -5.7794432763        0.2133092660      -21.0901125887
 H        -4.0684249933       -0.3854451162      -21.1278839240
 H        -4.5764376426        0.9925676520      -22.0769280131
 H        -3.4804722841        0.1243467547      -18.5823469321
 H        -5.1455871481        0.2170638248      -18.5092158254
 H        -4.1957345251        1.5156038385      -17.8805661318
 H        -0.4748083258        7.5771491336      -21.3241806066
 H        -2.0116474719        6.6622426141      -21.3901202816
 H        -0.4762996624        5.9722352546      -21.9211567534
 H         1.1035624133        6.9347990071      -19.3538488987
 H         1.2240656010        5.4589847750      -20.1935037269
 H         0.9179231109        5.3618610131      -18.4324255115
 H        -6.4712913209        8.1689504898      -17.5417081115
 H        -5.8742254605        9.6767010657      -18.0008685700
 H        -6.3146299507        9.3218365346      -16.2112520330
 H        -2.8274734436        9.3359106658      -15.5381826121
 H        -4.3088899611        9.7721475954      -14.8191374563
 H        -3.5831458039       10.6725700553      -16.2526779953
 H        -0.7013619157        3.2855631916      -10.8901302609
 H        -2.4181661924        3.8107799856      -10.7953425580
 H        -1.1901486269        5.0099006116      -10.9312393607
 H        -0.6288195566        4.7086717066      -14.5219721533
 H         0.3020429937        3.5282257489      -13.5641935651
 H         0.1425676597        5.1729817637      -12.9762535272
 H        -4.1091440013       -1.9767770578      -14.3460423859
 H        -5.5180901739       -0.8837369701      -14.3708805184
 H        -5.6749382456       -2.6983812325      -14.1575007734
 H        -6.5765271125       -0.3107588855      -11.9792516464
 H        -6.2715053366       -1.1790780470      -10.5637511295
 H        -6.9558096647       -1.9889141449      -12.0011828277
 H        -2.2173071954       -6.9236159764       -6.8986687876
 H        -1.2778898219       -5.9736349809       -8.0891948418
 H        -2.9074195092       -6.7216761530       -8.4910693022
 H        -4.5915657443       -6.5080821761       -6.5364119071
 H        -4.8997493253       -5.4884430557       -7.9095228137
 H        -4.9570143369       -4.7633445232       -6.2693007943
 H        -2.5973841104       -7.6564109650       -2.2277402657
 H        -1.8374478424       -6.9807636680       -3.7047671638
 H        -3.3797535946       -6.3475883365       -2.9569353380
 H        -3.5130635383       -5.2789415255       -1.0155495176
 H        -2.1496343918       -4.6476050746       -0.1525997284
 H        -2.6836934796       -6.4596914046       -0.1797851702
 H         3.8213992038       -8.9957174850       -0.3987966550
 H         4.3262546123       -9.0857065890       -1.9705430212
 H         4.4256507584      -10.5550791823       -1.0215707391
 H         3.1432341995      -11.2569759142       -3.2743852391
 H         1.3302645013      -11.3784752868       -2.9608265830
 H         2.6058195718      -12.2063616843       -1.9887246067
 H        -2.3772966857      -14.0790571578        3.1264956811
 H        -0.8508655047      -13.8422553006        2.4128551543
 H        -2.2855043580      -13.7506964290        1.4086155525
 H        -4.0055503869      -12.4525501456        2.6035753018
 H        -3.5360824393      -10.7137988761        2.7215519319
 H        -3.5762984951      -11.6586912112        4.1340416515
 H         2.9085358530       -7.3666404477        3.8236934575
 H         2.6510507911       -9.0562640725        3.5265598365
 H         3.4186744382       -8.7665880536        4.9238601545
 H         1.8990757081       -9.1455486425        6.8573562740
 H         0.6375818335       -7.9657985863        7.2286254318
 H         2.4320560257       -7.6016053730        6.6156846069
 Na        0.1365850742       -8.2537982598        1.7016360641
 Na       -5.1970154821        5.7766416614      -19.0360349860
