232

 C        -0.6468237222       -6.5689605245        5.4550818921
 C         0.4422255228       -7.0802615358        4.5132095846
 O         0.3265904316       -6.7757740924        3.3215065180
 C         1.3879195742       -8.1952964470        5.0687433044
 C         0.5656784198       -9.4883700177        4.7501154118
 O         0.2109465374       -9.6842286154        3.5816918945
 C        -0.1919501274      -10.2915804351        5.8028501622
 C        -1.4117599328      -11.0152940661        5.1254990268
 C        -0.9318097346      -11.8983849997        4.0358556268
 O         0.1392588071      -12.4815460297        4.0169466776
 C        -1.9539689395      -12.0928911848        2.7981560718
 C        -1.3421322809      -11.1842855985        1.7396178009
 O        -1.4748541390       -9.8983907059        1.6795210991
 C        -0.1331185006      -11.7647496736        0.9080271206
 C         0.3513070892      -11.0646847247       -0.3888532707
 C         1.5231024248      -10.1351069308       -0.3107059725
 O         1.7814762468       -9.3776990379        0.5929120811
 C         2.3487579895      -10.0480331015       -1.6370933844
 C         1.4066020809       -9.0640232337       -2.3614358697
 O         0.3218464777       -9.3765959806       -2.7681848605
 C         1.8943644700       -7.5788629813       -2.4015903515
 C         0.7154781179       -6.5821922471       -2.5821314674
 C        -0.4220361653       -6.6263162363       -1.5655539466
 O        -0.2357074461       -7.1902879597       -0.5035973870
 C        -1.7446398344       -5.9114631578       -1.9559623515
 C        -1.4059813375       -4.5020322870       -2.5902622620
 O        -0.3750312336       -3.8544531230       -2.5726922548
 C        -2.7302901103       -3.8143219846       -3.4589554494
 C        -2.4994213301       -3.4207898608       -4.9213129745
 C        -2.0627767259       -4.6831869603       -5.8357922570
 O        -1.0961577869       -5.3613989317       -5.5660063242
 C        -2.8072067646       -5.0856702043       -7.1576704646
 C        -2.8542992758       -3.7982881789       -8.0692832989
 O        -2.5659846993       -2.6793230943       -7.6445195134
 C        -3.2921048118       -3.9991848436       -9.5914343525
 C        -4.4335755332       -3.0931051921      -10.0436867182
 C        -4.4292453477       -2.9782779890      -11.5262867746
 O        -3.9454918036       -3.8498452408      -12.2196696333
 C        -4.9257268470       -1.6514530562      -12.2947635109
 C        -3.8656173456       -0.5042760242      -12.0292327274
 O        -3.4212843526       -0.4246315374      -10.9304579093
 C        -3.4935842445        0.4934767916      -13.1342694841
 C        -2.7535388117        1.6957334421      -12.4962414045
 C        -2.1912031985        2.7749381465      -13.3949797123
 O        -2.2503136253        2.7048919517      -14.5797088551
 C        -1.6911422341        4.1352181394      -12.8162598450
 C        -2.8787296015        5.1255927540      -13.1621172109
 O        -3.5504921539        5.6375509603      -12.2955165301
 C        -3.1322205230        5.4299822993      -14.6332344886
 C        -3.6671850218        6.8514899875      -14.8109068398
 C        -4.2282424105        7.1253993004      -16.2033238812
 O        -4.8787970471        6.2920910219      -16.7756843580
 C        -4.2194549436        8.5728524346      -16.7934340250
 C        -3.6035004544        8.5890647586      -18.2234862958
 O        -4.0310769148        7.8284619479      -19.0788904233
 C        -2.3966515318        9.5187652277      -18.4477317262
 C        -1.2745914990        8.6500566222      -19.1229563658
 C        -1.2571346929        7.1979483789      -18.6180391265
 O        -1.4406616673        6.8835450435      -17.4673875330
 C        -0.7672373424        6.0958975817      -19.6463755803
 C        -1.7018434401        4.7113854778      -19.4858447998
 O        -2.9183096603        4.8243650467      -19.4431765416
 C        -0.9396588786        3.3825825781      -19.4504081953
 C        -1.8951626796        2.1806228208      -19.2604399044
 C        -2.9744921427        2.1614469132      -20.3382248021
 O        -2.8633171103        2.7117673512      -21.3871690988
 C        -4.4049177056        1.4625271626      -19.9760263982
 C        -5.3615569702        2.7112875888      -20.0975605462
 O        -5.4613552518        3.4215352306      -19.0931341126
 C        -5.9609019009        3.0732833593      -21.4232485035
 C        -6.9738205779        4.3025152188      -21.4812952517
 C        -7.8279686935        4.8046457202      -20.3515400207
 O        -7.3487229881        5.4819206959      -19.4327991116
 C        -9.3670408487        4.3639621816      -20.1512297413
 C        -9.3414520601        2.7322098591      -19.8272690860
 O        -8.5238171311        1.9760370709      -20.3010040357
 C       -10.3467994430        2.1376390188      -18.8759707927
 C        -9.5473450961        1.4015963307      -17.7268886614
 C       -10.1400540774        0.1119464604      -17.2308064174
 O        -9.6344510805       -0.9302970148      -17.5340262077
 C       -11.3294689048        0.1048327056      -16.0569890825
 C       -10.6325922498        0.8695576959      -14.8536938527
 O       -10.2341087066        1.9928306441      -15.0877087008
 C       -10.4080997156        0.0929408029      -13.4630218348
 C       -12.5436753407        0.9284029756      -16.3939034195
 C       -11.6522167413       -1.3491057617      -15.8003541259
 C        -9.8906882191        5.0775650105      -18.8754415272
 C       -10.2420222933        4.4010669279      -21.3995869140
 C        -4.6024109507        0.3895629786      -21.0112082166
 C        -4.4614717516        0.8198540292      -18.4471952680
 C        -0.9865608446        6.5143382450      -21.1973566164
 C         0.7729864786        6.0210431220      -19.4982567912
 C        -5.6372502829        9.0282857344      -17.1754005273
 C        -3.8117960789        9.6885040421      -15.7741628893
 C        -1.5667881148        4.1195384339      -11.2426296453
 C        -0.2737580636        4.4196593963      -13.4024697364
 C        -5.1615722993       -1.9501147085      -13.7631810371
 C        -6.2822366340       -1.1740705129      -11.7187181199
 C        -2.0562089467       -6.1888094692       -7.9576641364
 C        -4.3473288443       -5.3744216276       -6.7551138617
 C        -2.4827191913       -6.8533524271       -2.9514978742
 C        -2.4466038156       -5.6043488377       -0.6171176142
 C         3.7908783787       -9.5613123447       -1.4684723757
 C         2.3096405794      -11.4078870953       -2.4108072855
 C        -1.8964593218      -13.6258756805        2.4891125772
 C        -3.4592615800      -11.7074140881        3.1485889805
 C         2.6293386033       -8.1343937069        4.2113702187
 C         1.6504989482       -8.1723874179        6.5769226606
 H        -0.9371854542       -7.3234124054        6.1658922738
 H        -1.4658129255       -6.1555848032        4.8464238024
 H        -0.3363487213       -5.6698047814        6.0690069171
 H        -0.5298032150       -9.5406722911        6.5900861512
 H         0.3889097075      -11.0952971707        6.3336708586
 H        -2.1072203274      -10.2412966265        4.6423265104
 H        -1.9252105468      -11.5920089542        5.8757585277
 H        -0.4181654062      -12.8398875946        0.6122668205
 H         0.6873907578      -11.7584248530        1.7141242597
 H        -0.4702674450      -10.4850762378       -0.8077764561
 H         0.5194292282      -11.8110095792       -1.1940938721
 H         2.6066122013       -7.4848922370       -3.2448598126
 H         2.3020696674       -7.3815870029       -1.3810504787
 H         0.3302228070       -6.7306980641       -3.5669109486
 H         1.2104439838       -5.5918242589       -2.5677416058
 H        -3.2000373246       -2.9601588084       -2.8178205889
 H        -3.5655672065       -4.5223104264       -3.4273423445
 H        -1.5780990848       -2.8232250372       -5.0061900576
 H        -3.3814383613       -2.8889319329       -5.2746503705
 H        -3.5595341961       -5.0390983749       -9.7865820678
 H        -2.4495132785       -3.7480777062      -10.2437107258
 H        -4.1562924041       -2.1327147260       -9.7082476207
 H        -5.3514762538       -3.3223093774       -9.5626970992
 H        -4.4568045074        0.8701130733      -13.6333363683
 H        -2.7876661836        0.0380252980      -13.8574772802
 H        -1.9529527016        1.3703393721      -11.9488917132
 H        -3.3949148834        2.1887400731      -11.8183321939
 H        -3.9400783291        4.7147301660      -15.0432920635
 H        -2.2571396517        5.2733285516      -15.2402106373
 H        -2.9320244165        7.6488998638      -14.4742324206
 H        -4.5455696775        7.0035666225      -14.1294591220
 H        -2.0627167883        9.8704658197      -17.4978122587
 H        -2.6714785400       10.3957386543      -18.9802535468
 H        -0.3174682562        9.0524216418      -19.0763161049
 H        -1.5601461367        8.5987822697      -20.1841575542
 H        -0.2624693405        3.5943515848      -18.6124256918
 H        -0.3340664678        3.2360485022      -20.3739442178
 H        -2.3077319568        2.2562547598      -18.2835317872
 H        -1.2665474114        1.2703201562      -19.1974295906
 H        -6.6943557906        2.2246842359      -21.6311469219
 H        -5.2496604949        3.2077208235      -22.2147081851
 H        -7.6737622388        4.0516297768      -22.2242101631
 H        -6.5300349750        5.2167747440      -21.9340971155
 H       -10.7695764949        1.3931245256      -19.5303211475
 H       -11.1155910378        2.9171397791      -18.5626126646
 H        -9.4238737523        1.9935505421      -16.8620078575
 H        -8.5235661885        1.1774944798      -18.0895941326
 H       -10.2824638334        0.8617485836      -12.6807802619
 H        -9.5241438105       -0.4862406402      -13.4943597685
 H       -11.2599464445       -0.5580782786      -13.3452028782
 H       -13.0080616774        1.2299566155      -15.4240050965
 H       -13.2351070955        0.3448207460      -16.9478807222
 H       -12.3102728606        1.9190287349      -16.8774758077
 H       -11.7044009655       -1.9886075170      -16.7689283635
 H       -12.6274847117       -1.5434631368      -15.2999504816
 H       -10.9205590762       -1.8935380773      -15.1755878375
 H        -9.2449285471        4.8720814986      -17.9835259155
 H       -10.8663029292        4.8458363086      -18.6418337427
 H        -9.6607070164        6.1039149552      -18.9361949847
 H        -9.7122458496        3.7765827023      -22.1641525217
 H       -10.4126717797        5.4318684265      -21.7913375137
 H       -11.2414400375        3.9625014631      -21.1110353372
 H        -5.6097111652        0.0907569087      -21.1990446945
 H        -4.0017653218       -0.4761035854      -20.8241325807
 H        -4.2556659503        0.8379433108      -21.9114614972
 H        -3.7819426852        0.0438212404      -18.2489255941
 H        -5.4152438645        0.3163666731      -18.3304435423
 H        -4.4546459060        1.5908224048      -17.6956797812
 H        -0.4559172995        7.3207935958      -21.3558828612
 H        -1.9858353225        6.6722211592      -21.3960341804
 H        -0.6302006538        5.7837514240      -21.8944252085
 H         1.2289788520        6.9535508011      -19.9833285200
 H         1.1240028405        5.2055961163      -20.1891508437
 H         1.2107745146        5.7828254399      -18.5128162322
 H        -6.2495057332        8.3244042505      -17.6340946551
 H        -5.4566000814        9.8320875718      -17.9247409277
 H        -6.0937066625        9.3979383969      -16.2712486222
 H        -2.7577206598        9.7406140346      -15.4540902273
 H        -4.3620720752        9.4885069775      -14.8020950831
 H        -4.1359237580       10.6577566221      -16.2424225500
 H        -1.0197656889        3.2263667857      -10.8882970018
 H        -2.6092458462        4.0481459447      -10.8522217783
 H        -1.1630884391        5.0718930978      -10.8562544845
 H        -0.2790044567        4.4673033790      -14.5076677045
 H         0.4951541894        3.7365078509      -13.0524037527
 H        -0.0109746354        5.3772465145      -13.0086095084
 H        -4.4177191142       -2.5363738154      -14.2784559973
 H        -5.3188219017       -1.0274218770      -14.3719726283
 H        -6.0373609371       -2.5029716861      -13.8249584466
 H        -6.4375186168       -0.1704014223      -12.1903029422
 H        -6.4142251297       -1.0303302610      -10.6577324346
 H        -7.0844553616       -1.7890162123      -12.0887936042
 H        -1.9974472777       -7.2073595280       -7.5009068400
 H        -1.0420567029       -5.7605893761       -8.0717108705
 H        -2.5971761009       -6.1911765088       -8.9299806363
 H        -4.4599988637       -6.4183570974       -6.3771681408
 H        -5.0054417106       -5.3860975768       -7.6761134748
 H        -4.6511577538       -4.6935042333       -5.9607606752
 H        -2.5480384782       -7.7904705229       -2.4904283008
 H        -1.9354614920       -6.8588003298       -3.9024495100
 H        -3.5157881429       -6.4852517464       -2.9378902025
 H        -3.4248039640       -5.2093917795       -0.8217350592
 H        -1.8900153754       -4.8452358788       -0.1159812214
 H        -2.6489502759       -6.5231427550       -0.1793953109
 H         3.9172677787       -8.8325714231       -0.6411932186
 H         4.1379058877       -8.9757381312       -2.3730364569
 H         4.4824145899      -10.3519320081       -1.3738038021
 H         3.0328468889      -11.3711132831       -3.1993545800
 H         1.2861298652      -11.6527329378       -2.7696482358
 H         2.7123600001      -12.2572952217       -1.7930442936
 H        -2.2482922149      -14.1773144470        3.3590363455
 H        -0.8643817302      -13.9028508505        2.3496781336
 H        -2.4452972959      -13.8239127515        1.5665901721
 H        -4.1258480115      -12.2564486746        2.4707655336
 H        -3.6258014466      -10.6367659307        3.2225357827
 H        -3.6824482202      -12.0579372953        4.1811007143
 H         2.8147970148       -7.0899594710        3.9585918124
 H         2.5956533375       -8.7127389637        3.2743460078
 H         3.3693700110       -8.7494575375        4.7444413185
 H         1.7870539587       -9.1717961526        6.9012265995
 H         0.7435390919       -7.8296165431        7.0019940535
 H         2.5886476125       -7.6461440014        6.8590494832
 Na        0.1041285046       -8.2028270738        1.6718671765
 Na       -5.1756095706        5.7809385082      -18.9314060267
