232

 C        -0.6711018485       -6.5861961697        5.4952235065
 C         0.3742797235       -7.1229585069        4.5890703090
 O         0.4621922728       -6.8480556337        3.3777771601
 C         1.4531534792       -8.1831427543        5.0941854479
 C         0.5191422646       -9.4002964208        4.7833416323
 O         0.2735797208       -9.6418714075        3.5842526705
 C        -0.1560141608      -10.2331066020        5.8877571240
 C        -1.3612937811      -10.8964748867        5.1656126908
 C        -0.9131890378      -11.8729425145        4.0458355685
 O         0.1759277195      -12.3629130904        4.0077901581
 C        -1.9050346587      -12.1548793972        2.8405729921
 C        -1.3015747747      -11.2011597838        1.7859650818
 O        -1.7528513454      -10.0705698032        1.6436808991
 C        -0.1583827292      -11.8661157659        0.9393026726
 C         0.2990512052      -11.1239442457       -0.2870924584
 C         1.5131143083      -10.1755019381       -0.2972181065
 O         1.6753255920       -9.2764980470        0.4971251644
 C         2.3500015405      -10.1779788561       -1.6433927518
 C         1.3657229482       -9.0793784707       -2.4031027815
 O         0.4041328184       -9.5083568308       -3.0139790895
 C         1.8025185348       -7.5972208988       -2.3481824716
 C         0.7386728262       -6.5961671081       -2.7285740427
 C        -0.3761856659       -6.6217004885       -1.6530311641
 O        -0.2701305020       -7.1495134396       -0.5523301243
 C        -1.7875710233       -5.9491629605       -2.0186553342
 C        -1.4977342975       -4.5419380520       -2.6889940180
 O        -0.5081485117       -3.9577433254       -2.3785001901
 C        -2.6277287244       -3.9268065634       -3.5322123159
 C        -2.2891696759       -3.4879343490       -4.9220131550
 C        -1.8734901845       -4.6197904978       -5.8895839224
 O        -0.9800804372       -5.3146941789       -5.5072809176
 C        -2.6937477522       -4.9495073545       -7.2682582251
 C        -2.8708564653       -3.7143642658       -8.1051675304
 O        -2.5448259834       -2.6522445236       -7.6871803722
 C        -3.2998512864       -3.9198076560       -9.6268432827
 C        -4.3885975060       -2.9643433509      -10.0367436985
 C        -4.4720770048       -2.9414726635      -11.5411403465
 O        -4.0473730381       -3.8870296071      -12.2645243092
 C        -5.0633769671       -1.6272924605      -12.3318927212
 C        -3.9122910749       -0.4870969478      -11.9051049255
 O        -3.5338464606       -0.3918496993      -10.7681625168
 C        -3.4571203557        0.4840850983      -13.0220912867
 C        -2.7542545981        1.7253440355      -12.4787734196
 C        -2.1769686297        2.8291760462      -13.4882052557
 O        -2.2341279918        2.8918571104      -14.7117333050
 C        -1.6959970321        4.1469811647      -12.7290149375
 C        -2.7871594825        5.1245156531      -13.1592241672
 O        -3.6061198077        5.5181068233      -12.3323965640
 C        -3.1671793031        5.3926407200      -14.6754457276
 C        -3.4992143448        6.8081095087      -14.9120343391
 C        -4.2541923633        7.1690323514      -16.2183536816
 O        -4.7964379928        6.1986141739      -16.7625949823
 C        -4.3312596069        8.6939252230      -16.8002604536
 C        -3.6212211011        8.5198829302      -18.1587582507
 O        -4.0319498322        7.7598532573      -19.0476789918
 C        -2.4721228012        9.4881060047      -18.4889157757
 C        -1.3866274232        8.6692877557      -19.3201590663
 C        -1.2472355720        7.2395421736      -18.7739624236
 O        -1.5311863697        7.0640790693      -17.6068048734
 C        -0.7786012082        6.0938055562      -19.7840564471
 C        -1.5705713549        4.8330967234      -19.3106255121
 O        -2.8107212760        4.9127799900      -19.2526163563
 C        -0.9250923924        3.3923190282      -19.2856916747
 C        -1.8945232004        2.1713330937      -19.1231071589
 C        -2.9681370220        2.1146600387      -20.1188399454
 O        -2.8429463706        2.5694987491      -21.2534335972
 C        -4.3871284833        1.4867935545      -19.9847288977
 C        -5.3415614662        2.8409557069      -20.0285964622
 O        -5.4181809652        3.5271107864      -19.0346791085
 C        -6.0409397796        3.0652379084      -21.3656919795
 C        -6.9694558789        4.3358041753      -21.5683934505
 C        -7.7725604471        4.7821802250      -20.3053649029
 O        -7.3668042297        5.5040905345      -19.4513790030
 C        -9.3294041460        4.3334918004      -20.1018041945
 C        -9.2623690305        2.7947201170      -19.8630301524
 O        -8.4351564834        2.1452305255      -20.4927270807
 C       -10.3543220913        2.0772094359      -18.8942901885
 C        -9.5542476076        1.3394949765      -17.7891190018
 C       -10.1918835685       -0.0298667082      -17.1962945768
 O        -9.7015922590       -1.0953387209      -17.5097831797
 C       -11.2899398571        0.0359864874      -16.0577619846
 C       -10.5934234746        0.7619924782      -14.8421373212
 O       -10.2689668482        1.9228931649      -14.9096217918
 C       -10.4427347187       -0.0201297687      -13.5729942864
 C       -12.5407151622        0.9982299679      -16.3641854244
 C       -11.9222882622       -1.3479325359      -15.8742835619
 C        -9.8791279558        4.9794491150      -18.8498239016
 C       -10.3090342403        4.6388680291      -21.3238510927
 C        -4.5346510517        0.2124439065      -20.9205957455
 C        -4.6724736922        0.9479676375      -18.5703396590
 C        -1.1696213067        6.4113639492      -21.1770642545
 C         0.7372366550        5.8686951744      -19.5600846665
 C        -5.7822909506        9.0071169528      -17.1389213790
 C        -3.6552527373        9.6331040886      -15.7917527565
 C        -1.6642864073        4.1457886821      -11.1585543492
 C        -0.3207354150        4.5368252651      -13.2826925311
 C        -5.2332845768       -2.1227099009      -13.7754137898
 C        -6.3369929260       -1.0324740528      -11.6614408074
 C        -1.9556937120       -6.0939246514       -7.9468371283
 C        -4.1087955393       -5.3152499928       -6.7096113211
 C        -2.4901029896       -6.9156906884       -2.9726393086
 C        -2.4570676648       -5.7503508208       -0.5698330532
 C         3.7320857794       -9.5430379275       -1.6889684521
 C         2.3919885456      -11.5225011486       -2.4236399576
 C        -1.9719004262      -13.6682943805        2.4879810532
 C        -3.3983358303      -11.6621398191        3.1370101646
 C         2.6826751834       -8.0277508760        4.0993272369
 C         1.9004315492       -7.9959880300        6.5856251666
 H        -0.9373926745       -7.3794172558        6.1638520045
 H        -1.5228276998       -6.0673432779        5.0060148430
 H        -0.2411977264       -5.8556719605        6.0938910836
 H        -0.5073918755       -9.5571288945        6.6578443953
 H         0.5104369467      -10.9687404250        6.3783185925
 H        -1.8994740810      -10.0586490387        4.6638764735
 H        -2.0261544670      -11.3874249661        5.9490597468
 H        -0.5240420037      -12.7899502291        0.6334305958
 H         0.6018459651      -11.9970649879        1.6872512398
 H        -0.6402253436      -10.5190758613       -0.6344949351
 H         0.4262037971      -11.8195487689       -1.1623682963
 H         2.5903671341       -7.5585637190       -3.1360394235
 H         2.1110042624       -7.4179846107       -1.3074503248
 H         0.3689574482       -6.8261950594       -3.7381029339
 H         1.2605289704       -5.6309302026       -2.7961139472
 H        -2.8215204599       -2.9265067356       -3.0500260523
 H        -3.5818350859       -4.4772496283       -3.2951239272
 H        -1.4430021800       -2.8197474592       -4.9008350379
 H        -3.2609223670       -2.9817037181       -5.2201794328
 H        -3.7848276195       -4.8882039111       -9.7195706437
 H        -2.4404848793       -3.8437615720      -10.3031415081
 H        -4.3882169615       -2.0207199361       -9.5440624219
 H        -5.3110451273       -3.4018123579       -9.6604068495
 H        -4.3302157491        0.8499852561      -13.4876474748
 H        -2.7917774321       -0.0155209503      -13.7582828213
 H        -1.7875854995        1.4722962774      -12.0280510478
 H        -3.3334623015        2.1920053343      -11.7692186671
 H        -3.9622999411        4.7623733179      -15.2047720676
 H        -2.2387933788        5.3011454956      -15.2171669559
 H        -2.6200686897        7.4282475314      -14.6602482746
 H        -4.3002429375        7.2480819802      -14.2041136547
 H        -1.9914425674        9.9332515583      -17.5911385885
 H        -2.9792770051       10.3169662499      -18.9586743603
 H        -0.3556705044        9.0227148782      -19.1682769004
 H        -1.5642249105        8.7460451981      -20.3870091664
 H        -0.0058655151        3.4254399633      -18.7390352665
 H        -0.6647519779        3.3076765807      -20.3065802431
 H        -2.2922832585        2.1064811338      -18.0790085611
 H        -1.2877378597        1.2568928392      -19.1823288311
 H        -6.5603682256        2.1580265873      -21.6745225440
 H        -5.2478940591        3.2980286052      -22.0319147109
 H        -7.5507313418        4.3280618972      -22.5304456987
 H        -6.3306764765        5.2298052293      -21.7319428483
 H       -11.0441134570        1.5024883170      -19.6186545464
 H       -10.8768494776        2.8483568851      -18.4266418092
 H        -9.2585615500        2.0204406255      -17.0181285060
 H        -8.5862534657        0.9650063552      -18.2583930658
 H        -9.8361797830        0.7209433750      -12.9467499111
 H        -9.7754516032       -0.8073015224      -13.7999228374
 H       -11.4083593891       -0.4452001434      -13.1886087996
 H       -12.9389868877        1.3304784781      -15.4123949051
 H       -13.3216001065        0.3916790215      -16.8904445352
 H       -12.2866041891        1.9064387211      -16.8480124630
 H       -12.1403952948       -1.7670025610      -16.8449160749
 H       -12.9348102075       -1.3088178159      -15.3825138454
 H       -11.3933144631       -2.2091310194      -15.3353768701
 H        -9.3194903019        4.7409904198      -18.0366751590
 H       -10.8966152726        4.7843520837      -18.6668958033
 H        -9.6330767028        6.0311678032      -18.8325175377
 H        -9.9718527041        4.1074766331      -22.1646479891
 H       -10.2866003943        5.7330313828      -21.5564387422
 H       -11.3265470528        4.3117018150      -21.0311988471
 H        -5.5594599030       -0.0927480472      -20.9222513879
 H        -3.9815888641       -0.5973646660      -20.5428411361
 H        -4.2689113110        0.4283933727      -21.9342912609
 H        -4.0384749774        0.1183326023      -18.2336914528
 H        -5.6571257756        0.5511187218      -18.5078522670
 H        -4.6876315882        1.8497997343      -17.8673388045
 H        -0.3355740588        7.0433764231      -21.5749067153
 H        -2.1228526673        6.7824468570      -21.3619526749
 H        -1.0642016198        5.4862293249      -21.6668416556
 H         1.3542431318        6.6091676225      -20.1405917819
 H         1.1346934033        4.8562977192      -19.8550597558
 H         0.9343870399        5.9122957114      -18.4986468438
 H        -6.0532214320        8.2585023219      -17.9246129157
 H        -5.8388147219        9.9999715984      -17.6207383646
 H        -6.4405819755        8.9323115769      -16.3209822122
 H        -2.4838098877        9.6051829297      -15.5884971110
 H        -4.0391254912        9.4162583105      -14.8144792943
 H        -3.9729122223       10.6380992344      -16.1330380290
 H        -1.1379858356        3.2305474370      -10.8980018668
 H        -2.6337895472        4.1946379997      -10.6445697139
 H        -1.1064597676        5.0881857873      -10.8481424777
 H        -0.2471550201        4.1905264292      -14.2928212980
 H         0.4817200531        4.1299510741      -12.6980739693
 H        -0.2006547313        5.6365397461      -13.2887379928
 H        -4.4824054519       -2.8652415966      -14.0702517008
 H        -5.1455463488       -1.3856417372      -14.4444423599
 H        -6.1821669222       -2.5883626495      -13.8832472024
 H        -6.5737689064       -0.0547330931      -12.2193813964
 H        -6.1526622775       -0.7800516759      -10.6303354152
 H        -7.2866612644       -1.6308047108      -11.6677633411
 H        -2.0035432937       -7.0653948105       -7.3674778697
 H        -0.8930721995       -5.7453960673       -7.8785018949
 H        -2.3564204293       -6.1423491877       -8.9669734997
 H        -3.9159243512       -6.3439172943       -6.2905146484
 H        -4.8518800151       -5.5609284704       -7.4900040559
 H        -4.4193222040       -4.6851591323       -5.8642804112
 H        -2.3785812526       -7.9555587298       -2.6415442102
 H        -2.1080953565       -6.6994534466       -3.9421460708
 H        -3.5776135584       -6.6816549363       -2.7900750958
 H        -3.3921340468       -5.1956947914       -0.7767559742
 H        -1.8548275424       -5.1050364349        0.0488479724
 H        -2.7954437168       -6.6853567125       -0.2854751308
 H         3.8180164747       -8.6393495856       -0.9889755312
 H         4.0239746100       -9.1392138092       -2.6864440521
 H         4.5028520777      -10.2395139985       -1.4459191307
 H         3.2344843111      -11.4485341505       -3.1374499168
 H         1.4733177624      -11.8263577533       -2.8397242033
 H         2.7698011098      -12.3311027725       -1.7565716462
 H        -2.3988359018      -14.2132789857        3.4137632642
 H        -0.9581360271      -14.0836970381        2.3321987985
 H        -2.5756549172      -13.7622844342        1.5795566842
 H        -4.0245766438      -11.7433114462        2.2540298249
 H        -3.4217900968      -10.7244364871        3.7112303866
 H        -3.8169265591      -12.3778849745        3.8856334748
 H         3.0215471184       -6.9917892041        4.3268866368
 H         2.5804474411       -8.1117048876        3.0080005446
 H         3.3509945397       -8.9050241377        4.3376143215
 H         2.3735700094       -8.8940688272        7.0262181932
 H         0.9652184333       -7.7669271362        7.0525233481
 H         2.5722649767       -7.1537844218        6.7086077292
 Na        0.0749554614       -8.1882165077        1.5108918302
 Na       -5.0718528037        5.7700312420      -18.8672550210
