232

 C        -0.3229325213       -6.3112775170        5.7228270188
 C         0.4087129917       -6.8747896477        4.5586700486
 O         0.1910749358       -6.5783812292        3.3752758874
 C         1.5336187992       -7.9234942753        4.8605664084
 C         0.7502902692       -9.2074863940        4.6902050404
 O         0.5367787448       -9.5812615553        3.5086499848
 C         0.2116069191      -10.0890071662        5.7253926626
 C        -1.1240292558      -10.7821724643        5.3719745113
 C        -0.8839374409      -11.8158689852        4.1528105479
 O         0.0754992132      -12.5317424913        4.1349934875
 C        -1.8613526657      -11.9999206242        2.9549912672
 C        -1.2311376629      -11.2363712111        1.7246319372
 O        -1.8450347005      -10.1924763884        1.3191474258
 C         0.0300092636      -11.5486661596        1.0620909475
 C         0.1318253232      -11.1062586815       -0.4046831172
 C         1.3975816516      -10.3088365741       -0.5397466014
 O         1.6997617181       -9.5089801777        0.3271123533
 C         2.2320796122      -10.3571109176       -1.8444092493
 C         1.5227196090       -9.2401529728       -2.8475307986
 O         0.7956879704       -9.7226924840       -3.6891301227
 C         1.7516753452       -7.7120095102       -2.7189475702
 C         0.4127577958       -6.9635573380       -2.9380209923
 C        -0.5298479748       -6.8134738986       -1.7491964277
 O        -0.2415748693       -7.0973843274       -0.6016841482
 C        -1.8779954248       -6.1144013125       -2.0832531159
 C        -1.6963849447       -4.6844569993       -2.6117099161
 O        -0.8291763422       -4.0264421489       -2.1962923044
 C        -2.6362087109       -3.9751230278       -3.7393054761
 C        -1.8318939347       -3.3880579325       -4.7626755270
 C        -1.4114793154       -4.4849499027       -5.8330195214
 O        -0.5970226731       -5.3058617378       -5.5218331750
 C        -2.2638541703       -4.8338742667       -7.1243245832
 C        -2.6476484227       -3.6445911978       -8.0311588071
 O        -2.4614519079       -2.5462137156       -7.6735826324
 C        -3.4125951635       -3.9399695728       -9.4355329414
 C        -4.2958218623       -2.7734556650       -9.9544237651
 C        -4.5696336429       -2.7833919367      -11.4696462339
 O        -4.4207960459       -3.8535075215      -12.1235217363
 C        -5.0884413573       -1.4061273517      -12.1967824096
 C        -4.0867953942       -0.2031357686      -11.9141777596
 O        -3.8157718843        0.0236751010      -10.7806422932
 C        -3.3386741019        0.4949715518      -13.0605298224
 C        -2.6525407986        1.6412095774      -12.3811729331
 C        -2.2025689392        2.6879792101      -13.3254624164
 O        -2.0155101481        2.4644678421      -14.5141729420
 C        -1.8881148913        4.0732601688      -12.6395063549
 C        -3.0024008075        5.1369986030      -13.1828709272
 O        -3.8444758177        5.5980053685      -12.4100444618
 C        -2.8808771840        5.4573408755      -14.6615678306
 C        -3.1051078279        6.9971546473      -14.9675255710
 C        -3.9919428348        7.2039209950      -16.2226274319
 O        -4.7381940545        6.3050328981      -16.5980945557
 C        -4.2332560847        8.6067875713      -16.8306172993
 C        -3.7271036743        8.5785884933      -18.3002049342
 O        -4.2528351537        7.9277005702      -19.2285696787
 C        -2.5511809299        9.5025756568      -18.7276717330
 C        -1.6956477594        8.6012433224      -19.7906884190
 C        -1.3543493231        7.2841592798      -19.0277626103
 O        -1.3529823371        7.1954661934      -17.8257737312
 C        -0.9966624508        5.9627718846      -19.8591720579
 C        -1.6635718511        4.7987134360      -19.0699279165
 O        -2.7340506874        5.0670154756      -18.4788231130
 C        -1.0359001837        3.3508102063      -18.9006040037
 C        -2.1926322694        2.3763240106      -18.5910237433
 C        -2.9767126501        2.0838543985      -19.8270674772
 O        -2.5386798007        2.1992040523      -20.9288504195
 C        -4.5639004243        1.6396799504      -19.7482227871
 C        -5.3062259492        2.8917353106      -20.0172002575
 O        -5.5041588878        3.5873980360      -19.0560995326
 C        -6.0518933102        3.1166911509      -21.2975475240
 C        -6.8847440386        4.3804186660      -21.3248322279
 C        -7.6123031603        4.7609502930      -20.0491177846
 O        -7.2797563271        5.7488953068      -19.4302588448
 C        -9.1282524319        4.2281820155      -19.8846865695
 C        -9.3389729543        2.6778481594      -19.9653284813
 O        -8.6753254932        2.1041384401      -20.8370147516
 C       -10.3018634763        1.8354475439      -19.0901249159
 C        -9.5480679604        1.0683999059      -17.9251955367
 C       -10.4045993183       -0.1675700907      -17.2544120805
 O       -10.0811608718       -1.2755952000      -17.5402491947
 C       -11.4161229906        0.1101051649      -16.1505952435
 C       -10.6431809572        0.5216237531      -14.8337405815
 O       -10.2416330662        1.6150787595      -14.5854172245
 C       -10.4287272462       -0.6508955913      -13.8358699505
 C       -12.2862067768        1.3270397322      -16.6350033213
 C       -12.4555665954       -1.1070047129      -16.0037638825
 C        -9.7040800712        4.7847831125      -18.6018972386
 C        -9.8971338965        4.8832968069      -21.0819054090
 C        -4.8134791616        0.4891925731      -20.8065956132
 C        -4.6911697604        1.0711873808      -18.3752810018
 C        -1.2912363026        5.8665740246      -21.3274702276
 C         0.5550151354        5.9488383300      -19.8073490292
 C        -5.7708877578        8.6568916981      -16.8571217012
 C        -3.7631734402        9.8107606446      -16.0125771238
 C        -1.8247586169        4.1417543295      -11.1088814361
 C        -0.6325488462        4.6498040527      -13.2759661299
 C        -5.3184736144       -1.6361804195      -13.7054206122
 C        -6.3963713175       -1.1605380962      -11.5019302390
 C        -1.4658660606       -5.8698571127       -8.0006455313
 C        -3.6227419756       -5.2886537155       -6.6664132546
 C        -2.5830539739       -7.0124976919       -3.1420545225
 C        -2.7918468039       -6.0437522757       -0.8467753849
 C         3.6765320054       -9.9720356001       -1.4141027284
 C         2.2467886247      -11.6997251619       -2.5533001623
 C        -1.8772534125      -13.6047309355        2.7801551695
 C        -3.2830995852      -11.5640693959        3.2110652097
 C         2.7555702118       -7.9612633622        3.9401876502
 C         1.9684026963       -7.7905508282        6.4022290967
 H        -0.9565783776       -7.1030266410        6.1615910142
 H        -0.9357166595       -5.3553573063        5.4850717829
 H         0.3853963336       -5.9423603785        6.4746756761
 H         0.1717508138       -9.6846075040        6.7705274873
 H         1.0225186304      -10.8660003569        5.7718374375
 H        -1.9913777275      -10.1004759141        5.3433865942
 H        -1.3227050589      -11.4166682209        6.1997313204
 H         0.2296305310      -12.6866667287        1.1195425452
 H         0.8563487858      -10.9854351931        1.6956870176
 H        -0.6010089968      -10.4727231326       -0.7502398982
 H         0.0186460837      -11.9148497177       -1.1014508512
 H         2.3333297455       -7.4505606722       -3.6024114513
 H         2.1725009084       -7.5258226242       -1.7234080271
 H        -0.0171727257       -7.4296730954       -3.7997035513
 H         0.6892385057       -5.9671966590       -3.3330679764
 H        -3.2526466298       -3.1913581145       -3.2444995043
 H        -3.2663552359       -4.7412220806       -4.1151816263
 H        -0.8714905244       -3.0359164467       -4.4359788058
 H        -2.4232182827       -2.5920601697       -5.2484626678
 H        -4.1317165159       -4.7558044653       -9.3342916573
 H        -2.6193184721       -4.1150420730      -10.1713057770
 H        -3.9890628053       -1.8035747834       -9.6163557629
 H        -5.2398685472       -2.8190449010       -9.4012212635
 H        -4.0828791472        0.7954045620      -13.8846655166
 H        -2.5385342204       -0.1463336502      -13.5715611735
 H        -1.7549599664        1.2448444706      -11.9252922509
 H        -3.2499507151        2.1112498836      -11.6435209680
 H        -3.7771859856        4.9771330549      -15.1535853104
 H        -1.9884036879        5.0740033559      -15.0098552650
 H        -2.1563367343        7.5504155925      -15.0055777807
 H        -3.5551515596        7.6351284319      -14.2144988412
 H        -1.9268207001        9.5817030472      -17.8381476899
 H        -2.8022046148       10.4937496435      -19.0054270695
 H        -0.8159710700        9.1247478610      -20.0546011123
 H        -2.2591134023        8.4507590235      -20.7399595521
 H        -0.1534264645        3.4329387432      -18.2069432885
 H        -0.5100573630        3.1879421921      -19.9006708133
 H        -2.7649823320        2.8521438195      -17.8058318118
 H        -1.8650624720        1.4673626823      -18.0797358451
 H        -6.7225625219        2.1712485507      -21.3952886375
 H        -5.3722708005        3.1879165809      -22.1447491439
 H        -7.6114926082        4.3152703719      -22.0710889632
 H        -6.3286377480        5.2494949522      -21.6673075207
 H       -10.7891256722        1.1792135867      -19.8436946928
 H       -11.0976605765        2.4334688987      -18.6309825763
 H        -9.3319282817        1.6989054480      -17.1301559393
 H        -8.5786749717        0.6541275623      -18.3030255881
 H        -9.3385267807       -0.7392151426      -13.6835384223
 H       -10.6754527830       -1.5257498013      -14.2506476077
 H       -11.0631772824       -0.4717162053      -12.9990972156
 H       -13.3319608714        1.2839839250      -16.2866566139
 H       -12.3195109994        1.2695853488      -17.7086503818
 H       -11.8169656955        2.2354606019      -16.2330489647
 H       -13.2521356009       -0.9594032454      -16.7127164695
 H       -12.9265261689       -1.2225082678      -15.0513464463
 H       -12.0174302776       -2.0712347475      -16.2706664991
 H        -9.2006688212        4.4191175509      -17.6893506616
 H       -10.7788200494        4.5924105199      -18.5038535009
 H        -9.5887187129        5.9268312925      -18.4526271770
 H        -9.5763637765        4.4215498668      -22.0030864982
 H        -9.6742086624        5.9683865903      -21.1551676318
 H       -10.9098508938        4.4641356810      -20.9828128495
 H        -5.8404520218        0.0453290824      -20.7853129594
 H        -4.1996056119       -0.3535197839      -20.4378056649
 H        -4.5586683133        0.7574445388      -21.8508892818
 H        -3.9085983027        0.3692011984      -18.3035227058
 H        -5.6081552369        0.6459257869      -18.0623656624
 H        -4.5569528307        1.9167914201      -17.6745329021
 H        -0.8743880863        6.7457490675      -21.7971277304
 H        -2.3043936001        5.8252384207      -21.5315167431
 H        -0.8285642440        4.9733481369      -21.7261732814
 H         0.9738879227        6.9736010223      -19.9145072745
 H         0.9476932435        5.2008479426      -20.4977369507
 H         0.8329615335        5.6118937942      -18.8468921211
 H        -6.0884089189        7.9331474795      -17.6007594580
 H        -6.2015279689        9.6779196654      -16.9282539675
 H        -6.1416082482        8.3446396787      -15.8891208117
 H        -2.6507104778        9.6073891598      -15.7966445923
 H        -4.2208992627        9.7875793217      -15.0605123556
 H        -4.0348116141       10.7306321380      -16.4567266730
 H        -1.0581158477        3.4766739829      -10.8423401112
 H        -2.7435638861        3.8073127712      -10.6685886722
 H        -1.7352609547        5.1622760789      -10.7844130363
 H        -0.4721241010        4.3982691100      -14.3517344580
 H         0.2344789563        4.2335767863      -12.7369315227
 H        -0.6426916393        5.7324168603      -13.2055781618
 H        -4.2729311295       -1.7060067296      -14.2434922013
 H        -5.8681713872       -0.8574622221      -14.2337864255
 H        -5.8054439558       -2.6167994078      -13.8715154321
 H        -6.9650095218       -0.3582013037      -11.9886645126
 H        -6.1417740743       -0.9707792144      -10.5248325124
 H        -7.1025177575       -1.9492299504      -11.4069686995
 H        -0.9486058443       -6.6034159754       -7.4243641753
 H        -0.6296746040       -5.4084207663       -8.4799366173
 H        -2.1786771258       -6.2399512927       -8.7284754287
 H        -3.6401619389       -5.8885038777       -5.7763616554
 H        -4.0747221567       -5.9518376941       -7.3951872881
 H        -4.1701543073       -4.4299572819       -6.4457500646
 H        -2.7173626470       -7.9172439085       -2.6528933246
 H        -2.0674192564       -7.0552124779       -4.0796611478
 H        -3.5937544533       -6.5488603452       -3.2193971952
 H        -3.7827608330       -5.5978470901       -1.0955592341
 H        -2.2494977107       -5.3116423038       -0.2141910972
 H        -2.8356813282       -7.0033652908       -0.4215257772
 H         3.7048728895       -8.9375084749       -0.9885069602
 H         4.3309452023       -9.9737290667       -2.3034026803
 H         4.0747211903      -10.6021817316       -0.7115869283
 H         2.8868875902      -11.6625340022       -3.4214794037
 H         1.2410646005      -11.9164443842       -2.8931585286
 H         2.5024349582      -12.4960703138       -1.7963968411
 H        -2.5576713079      -13.9372856203        3.5564055651
 H        -0.9848790626      -14.1249648985        2.8892272563
 H        -2.3509500249      -13.8037630229        1.8631267617
 H        -3.8610779015      -11.7594898690        2.3342015094
 H        -3.3769929417      -10.5317551692        3.5073087640
 H        -3.7179140140      -12.1773208065        3.9959878960
 H         3.3504919288       -7.1306854863        4.2637586735
 H         2.5971126339       -7.8262912156        2.9058335150
 H         3.3318109938       -8.9006270581        4.0944664652
 H         2.9017679393       -8.3759109431        6.5366747205
 H         1.2139830600       -8.0505068902        7.1349798128
 H         2.0717109698       -6.7131447418        6.6493172111
 Na       -0.2053572745       -8.4327042189        1.5004386388
 Na       -5.0232302644        5.8835288498      -18.9021174295
