232

 C        -0.2124077452       -6.0158712782        5.6286118940
 C         0.4579606915       -6.7656678080        4.5120945577
 O         0.1005656768       -6.6627648678        3.3844989389
 C         1.5037846290       -7.9360614812        4.8256839706
 C         0.7355523093       -9.3601433209        4.5339324708
 O         0.4211544815       -9.6111236822        3.3923646285
 C         0.2836745467      -10.2024269390        5.7322628689
 C        -1.0242085780      -10.7919058238        5.2157451366
 C        -0.7161079160      -11.8516441247        4.1261045047
 O         0.2223044492      -12.6059613773        4.2978956742
 C        -1.8598593737      -11.9820865235        2.9680872436
 C        -1.2958558838      -11.1259248681        1.7164613558
 O        -1.9198349379      -10.0994054480        1.4587052904
 C         0.0154994806      -11.6201895259        1.1258699713
 C         0.1241313273      -11.2837112232       -0.3151005099
 C         1.2789205646      -10.2764371775       -0.5706161799
 O         1.5564617426       -9.4810454868        0.3056379441
 C         2.2239466401      -10.3514961060       -1.8885423469
 C         1.6108648761       -9.2981325847       -2.9059255951
 O         0.9900507644       -9.7914835299       -3.8441258043
 C         1.7076407049       -7.7858145893       -2.7844784927
 C         0.3967065012       -7.0582064428       -2.9518766956
 C        -0.5519553017       -6.8085111962       -1.7332429073
 O        -0.2822217069       -7.2003910256       -0.5996974597
 C        -1.9815336592       -6.1862533233       -2.1284144311
 C        -1.7352771333       -4.6607080217       -2.6523208902
 O        -0.8303214952       -4.0828268750       -2.0915875099
 C        -2.6330236054       -3.9840858738       -3.7256774418
 C        -1.8166607897       -3.3652473110       -4.8875969383
 C        -1.3081566255       -4.5174721651       -5.9082014010
 O        -0.4134115280       -5.2514659368       -5.4954222434
 C        -2.2512779709       -4.8179707055       -7.1854406825
 C        -2.6083972777       -3.5857975696       -8.0137484585
 O        -2.4006638104       -2.4165577693       -7.6426217012
 C        -3.4131591517       -3.8825044063       -9.3775995146
 C        -4.1355480288       -2.6703789692       -9.9683133803
 C        -4.5061146116       -2.7422628116      -11.4616124796
 O        -4.5089116248       -3.7255801440      -12.1723233049
 C        -5.0945888899       -1.4837306466      -12.0575077824
 C        -4.1539661482       -0.3039517358      -11.7524904458
 O        -4.0140994833        0.0496262248      -10.5830789398
 C        -3.3691136404        0.3702788629      -12.8661008380
 C        -2.6113306144        1.6445015148      -12.3193531490
 C        -2.0988162013        2.7466342618      -13.2992281317
 O        -1.8802523287        2.5987498575      -14.5065128160
 C        -1.8779636011        4.1573907899      -12.6695131904
 C        -2.9911179259        5.1003607358      -13.2333347475
 O        -3.8072864280        5.6003328445      -12.4898066916
 C        -3.0711177953        5.4763754182      -14.7687776122
 C        -3.0365585612        6.9773540626      -14.9937650066
 C        -4.0583705474        7.2660941849      -16.1584528845
 O        -4.4890367900        6.2567332377      -16.7107019288
 C        -4.3229940486        8.6567474352      -16.8408131826
 C        -3.7832526765        8.6696065127      -18.3331458830
 O        -4.4624079603        8.1175167199      -19.1603644088
 C        -2.5125529309        9.4289809824      -18.8264428349
 C        -1.7944817692        8.4348335385      -19.8139982294
 C        -1.3385167273        7.2282096141      -19.0881926732
 O        -1.2219700056        7.2764893537      -17.8658318296
 C        -1.0042484689        5.9281525267      -19.8669723193
 C        -1.7233617126        4.8395934807      -19.0279470635
 O        -2.7275017000        5.0878871932      -18.3922615613
 C        -1.1805133753        3.4352153585      -18.7860767829
 C        -2.2774681020        2.3723145646      -18.5641357482
 C        -2.9494772511        2.0830141474      -19.8320353370
 O        -2.3485247826        2.1016656618      -20.9069941049
 C        -4.4533515854        1.5503138559      -19.6484039869
 C        -5.4414039414        2.8578696155      -19.8018692525
 O        -5.4839075473        3.6160855813      -18.8782125499
 C        -6.0816596075        3.1051060123      -21.2090291864
 C        -6.8349078506        4.4723341742      -21.3749542616
 C        -7.6790582209        4.7931155825      -20.1020237967
 O        -7.3253906262        5.6478297434      -19.3602986660
 C        -9.0561795246        4.1370534342      -19.7803782527
 C        -9.1624307537        2.6043086867      -19.9849447675
 O        -8.7664711532        2.0617999614      -20.9962969207
 C       -10.2486128823        1.9006792709      -19.0855722311
 C        -9.6238399370        1.0949863555      -17.9380838283
 C       -10.4914765472       -0.1516007172      -17.3443096548
 O       -10.0914184379       -1.2812001992      -17.6538895942
 C       -11.5057136612        0.1752721211      -16.2653287285
 C       -10.6634172807        0.3390021406      -14.8818253400
 O       -10.2701361993        1.4734914358      -14.6211367298
 C       -10.3540253834       -0.7933206472      -13.8900883264
 C       -12.3361365306        1.5513802723      -16.5276700272
 C       -12.5456761307       -0.9190360314      -16.1686544814
 C        -9.6241876054        4.6385151430      -18.3991352368
 C        -9.8932741829        4.7632552196      -20.9576194228
 C        -4.8089991595        0.5222329875      -20.7488269459
 C        -4.7861351328        0.9538326000      -18.2623455846
 C        -1.5197818884        5.8097524870      -21.3644135864
 C         0.6245172716        5.9760692144      -19.7720244261
 C        -5.9446091062        8.7129064446      -16.9969959546
 C        -3.6522355068        9.8392519229      -16.1422613441
 C        -1.9434279952        4.1854305930      -11.1556758305
 C        -0.4142051936        4.5317171111      -13.1854442666
 C        -5.2959305974       -1.6860092805      -13.6188643868
 C        -6.4780950397       -1.1433014716      -11.4335083896
 C        -1.3553725244       -5.7898268526       -8.0492465702
 C        -3.5979617716       -5.4507657372       -6.6225934216
 C        -2.7086618088       -7.0831887072       -3.3376401972
 C        -2.8360091425       -6.1329892001       -0.8189750523
 C         3.7252057829      -10.0909512439       -1.5213711226
 C         2.1553237518      -11.7169061828       -2.5521802975
 C        -1.8352146924      -13.4621560529        2.6878229571
 C        -3.2089130953      -11.4209310052        3.2811756022
 C         2.6384128900       -7.6707835191        3.8658901094
 C         2.0766181015       -7.8063141319        6.2962326038
 H        -0.7777760226       -6.8395301141        6.1747711335
 H        -0.8917142540       -5.1884760622        5.3742059148
 H         0.4928451290       -5.5786150564        6.3141535135
 H         0.0545167322       -9.5080425660        6.5738684476
 H         1.0853474777      -10.9007455165        6.1613223973
 H        -1.6887304555       -9.9582638776        4.9175910085
 H        -1.6471299450      -11.3368630170        6.0258496501
 H         0.1092919299      -12.6900287004        1.2682295189
 H         0.8863649374      -11.1004997056        1.6747889666
 H        -0.7796148594      -10.7664829069       -0.7583331503
 H         0.1474459665      -12.1383837346       -0.9661618139
 H         2.2881875477       -7.5297331165       -3.7111757627
 H         2.1355923571       -7.5072179507       -1.8143221022
 H        -0.1734807795       -7.6785487187       -3.6589698707
 H         0.6306894221       -6.2100658242       -3.5766370596
 H        -3.2234448278       -3.2608550936       -3.1271798159
 H        -3.2901563008       -4.8698528551       -4.0261328159
 H        -0.8711506860       -2.9742644732       -4.5955733611
 H        -2.3464402336       -2.5917840411       -5.5138020519
 H        -4.1603444193       -4.6461398712       -9.2648215195
 H        -2.6085635965       -4.0831128330      -10.0710314310
 H        -3.5388728610       -1.8230802859       -9.8160362007
 H        -4.9099395073       -2.3629854872       -9.3643750126
 H        -4.2150303948        0.5840293255      -13.5259958254
 H        -2.6531375001       -0.3195007021      -13.4661660967
 H        -1.7614059412        1.2703926853      -11.7940536381
 H        -3.1851159215        2.1781341647      -11.6746843566
 H        -4.0205523510        5.0359772257      -15.2005634103
 H        -2.1678319621        5.0358515700      -15.2142386172
 H        -2.0272952503        7.3697676185      -15.1499208763
 H        -3.2544989241        7.5939605657      -14.0723777258
 H        -1.8943002783        9.8778506800      -18.0670200234
 H        -2.8221009157       10.2143376416      -19.4571746348
 H        -0.9374484498        9.0009510316      -20.1744812263
 H        -2.4438230222        8.3280832644      -20.6276006503
 H        -0.4470598096        3.5233832273      -17.9737198517
 H        -0.5406782956        3.1971578498      -19.5856827159
 H        -2.9366379229        2.5763415041      -17.6732134486
 H        -1.7509458963        1.4863651556      -18.2412770541
 H        -6.7073200772        2.2137348361      -21.3863810658
 H        -5.2051886444        3.0988591016      -21.8764464216
 H        -7.3524770588        4.7157624488      -22.3381637131
 H        -6.0827281476        5.2399713873      -21.3423001305
 H       -10.9275943655        1.3075556525      -19.8261541154
 H       -10.9335890307        2.5695603884      -18.6522133377
 H        -9.4310623497        1.6964262472      -17.0797341494
 H        -8.6586661846        0.6886121119      -18.2853477827
 H        -9.3057871114       -0.8512921169      -13.7859316120
 H       -10.5601037517       -1.7674530422      -14.4204432057
 H       -10.9746806169       -0.6702192882      -13.0278836538
 H       -13.0992262180        1.7055827686      -15.7591815442
 H       -12.8729136517        1.4416874702      -17.5415573740
 H       -11.6247488767        2.3495237573      -16.4924690661
 H       -13.2729392931       -0.8355182615      -16.9508317908
 H       -13.1402723236       -0.8901251276      -15.1894670338
 H       -12.1182822769       -1.9781325102      -16.2451326246
 H        -9.1698969442        4.3138028132      -17.5376570378
 H       -10.7078747648        4.5591605436      -18.2944774718
 H        -9.5367153799        5.7315131573      -18.3884932577
 H        -9.6043259827        4.1781926181      -21.8338067509
 H        -9.5834717507        5.8275653813      -21.1396906427
 H       -10.9320015334        4.4282095651      -20.8221381740
 H        -5.8830748287        0.3482691556      -20.8120715527
 H        -4.4238354809       -0.4361463947      -20.4720220395
 H        -4.4379636383        0.8281050872      -21.7281198570
 H        -4.0626704023        0.2488726326      -17.8961781708
 H        -5.7376272189        0.5620147281      -18.2644246996
 H        -4.9179379046        1.8062477206      -17.6050067079
 H        -1.2177097952        6.6817919319      -21.8653646053
 H        -2.5545344027        5.7660133315      -21.3922191106
 H        -1.1048953942        5.0221477552      -21.7813873810
 H         1.0013995630        6.9794287543      -20.0262891819
 H         1.1787278654        5.0949744188      -20.1929547262
 H         0.7264759634        5.9361937503      -18.6563350250
 H        -6.1494157061        7.6811534849      -17.3289066348
 H        -6.3620076994        9.4820547982      -17.5739683186
 H        -6.4032373917        8.8826873925      -16.0676017012
 H        -2.5243359097        9.6373117301      -16.1937666636
 H        -3.9403308166        9.8578221506      -15.0728788765
 H        -4.0615295595       10.8209671135      -16.5050533719
 H        -1.1942290529        3.4872238247      -10.8425586694
 H        -2.9039860132        3.9504345672      -10.7300061029
 H        -1.7494317322        5.2419907463      -10.8684021361
 H        -0.2564101877        4.3477811039      -14.2312398218
 H         0.3271606946        3.9780645268      -12.6199100808
 H        -0.3005144791        5.6335028582      -13.0687738101
 H        -4.4150040882       -1.5064590486      -14.2245016156
 H        -6.0981769460       -1.1399410675      -14.0095109579
 H        -5.5377472440       -2.7620642043      -13.7552216732
 H        -6.9141267237       -0.2895872048      -11.8792578410
 H        -6.2674563044       -1.0403200837      -10.3993840191
 H        -7.2520031706       -1.8657147162      -11.4416080091
 H        -0.6810650327       -6.4555387842       -7.4838621079
 H        -0.5877987044       -5.1995583446       -8.6132075790
 H        -2.0116356300       -6.2569105761       -8.7816900600
 H        -3.2103092074       -6.2323789990       -5.9450547136
 H        -4.3020203256       -5.9420526679       -7.2718249682
 H        -4.1069926149       -4.7312136417       -5.9515182134
 H        -2.8191883670       -8.0922253193       -2.9397062721
 H        -2.1326860164       -7.0209801916       -4.2176814201
 H        -3.6857190049       -6.6423213894       -3.5473608083
 H        -3.8469021258       -5.8167221721       -1.0136145928
 H        -2.3496564586       -5.4247538784       -0.1841886645
 H        -2.7150701899       -7.0860373528       -0.3169262126
 H         3.8241782556       -9.0922235790       -1.0532152192
 H         4.2795585240      -10.0750879085       -2.4436775973
 H         4.1904204282      -10.8341178430       -0.8233987785
 H         2.7310318955      -11.6354236923       -3.5299244803
 H         1.1379196514      -11.8633945851       -2.8865013131
 H         2.4205600082      -12.5563315450       -1.8728560277
 H        -2.2423274502      -14.0578249415        3.5082525710
 H        -0.8495967034      -13.8170968181        2.4744778801
 H        -2.4570887835      -13.6110092507        1.8492857452
 H        -3.9609859453      -11.8121889954        2.5987343258
 H        -3.1389745892      -10.3287433416        3.0876507542
 H        -3.5676802284      -11.5884599844        4.3022877281
 H         3.0519861601       -6.6468190092        3.9746079963
 H         2.3888311832       -7.8130894859        2.8091670764
 H         3.4590456254       -8.4069109235        4.1272233933
 H         2.5902804853       -8.7299189600        6.5836800137
 H         1.3031300907       -7.5706233551        7.0139548238
 H         2.6387886633       -6.9572395939        6.3885800277
 Na       -0.1308622017       -8.4287308819        1.5453964785
 Na       -5.0494601895        5.9844978973      -18.8032985120
