232

 C       -18.8609469973      -12.2296036267        0.6331260015
 C       -17.8115651025      -12.4288677249       -0.4535289330
 O       -17.7217450475      -11.6550172409       -1.3587882446
 C       -16.8734566627      -13.7625442542       -0.4199689805
 C       -15.4392260041      -13.5951730603       -1.0343425270
 O       -15.0640953511      -13.8064621807       -2.2137915144
 C       -14.3960964227      -13.0528136548       -0.0457029349
 C       -13.1845341657      -12.4187043400       -0.6938019681
 C       -13.5367783659      -11.4734772900       -1.7868482200
 O       -14.6148326206      -10.8431506567       -1.7084601410
 C       -12.5931607864      -11.1046356681       -2.9540312328
 C       -13.5031524935      -11.0888143536       -4.1981590101
 O       -14.2794914048      -12.0085698644       -4.3693478596
 C       -13.4155024391      -10.0221342077       -5.3241867762
 C       -14.5797715075       -9.9573566944       -6.2705945320
 C       -15.7466067733       -9.1081102997       -5.7509110146
 O       -16.1630839766       -9.3366941483       -4.5649488638
 C       -16.4679587316       -8.0117192146       -6.7148299993
 C       -15.1795927206       -6.9731984010       -7.0367683835
 O       -14.1935978650       -7.0067913681       -6.3231578351
 C       -15.3190758885       -5.9960214295       -8.2313282627
 C       -14.4341075532       -6.4409978345       -9.4819797521
 C       -14.1475813263       -5.1720690415      -10.4169640191
 O       -15.0135995040       -4.7277894999      -11.1723865513
 C       -12.6698083434       -4.7712179109      -10.6654807666
 C       -12.3546040972       -3.8067709845       -9.4828668740
 O       -12.5084925449       -4.1670611115       -8.3256914731
 C       -11.7977399153       -2.3575770550       -9.7345921803
 C       -11.0114825170       -1.8008057293       -8.5370799717
 C       -10.3806223212       -0.3578990866       -8.8867960142
 O       -10.4825276599        0.1376416288       -9.9949036095
 C        -9.5266228784        0.4745489076       -7.8643041089
 C        -8.0273490993        0.0428310306       -8.3447121263
 O        -7.6121382245       -0.9973309474       -7.8356108506
 C        -7.4509136408        0.6866403418       -9.6094894113
 C        -5.8497727106        0.5831141319       -9.6896229126
 C        -5.3427762709        1.6660682690      -10.6510574424
 O        -5.6345969614        2.8215289776      -10.4963823666
 C        -4.1392087529        1.3296524454      -11.7224231420
 C        -3.0267100304        0.5529407872      -11.0103890932
 O        -3.0265441136       -0.6625791472      -10.8666174232
 C        -1.8181428491        1.3937966815      -10.3418857659
 C        -1.1272731384        0.6693709989       -9.2819562955
 C         0.0676465863        1.6143748345       -8.8789475731
 O        -0.2405122145        2.7522118382       -8.5284701836
 C         1.4970846603        0.9702208623       -8.6174832197
 C         2.5078118219        2.1018745012       -9.0141149093
 O         2.9812682176        2.1210176310      -10.1213889987
 C         2.6721264672        3.1399921947       -7.8113107883
 C         3.7133782881        4.2070745959       -7.9535479186
 C         3.7384243318        4.9330276433       -9.2344646389
 O         2.7235903986        5.6235655784       -9.4762406711
 C         5.0020356062        4.9093290511      -10.2812196723
 C         4.4559102829        4.5889081545      -11.7237864302
 O         4.8498278609        3.5596942011      -12.2789102885
 C         3.1661342584        5.4899103142      -12.3757019216
 C         3.5245766233        6.6737713725      -13.3319181383
 C         3.7231641804        6.2168811896      -14.7843757957
 O         4.1643528192        5.1011995743      -15.0852683627
 C         3.6959562168        7.2975170441      -16.0354878771
 C         4.9894896549        7.1359593817      -16.8991715782
 O         5.0451240814        6.4969074862      -17.9527696811
 C         6.4109516211        7.5634373889      -16.2712857657
 C         7.6222891045        6.8235719861      -16.7074059781
 C         7.5549232679        5.3742615540      -16.2842772199
 O         7.1779150339        5.1068299326      -15.1348242743
 C         8.0704742732        4.1507057923      -17.3195016811
 C         9.5536064410        3.8292752249      -16.8562325936
 O         9.7134340028        3.4394306610      -15.6459544218
 C        10.6682528070        3.5610101341      -17.8354870663
 C        11.6135653836        2.3548567063      -17.3895178254
 C        10.7272858695        1.0921037480      -17.4759070138
 O         9.6882667564        1.1564662695      -18.1197104633
 C        11.1938905261       -0.2333846086      -16.7335716432
 C        10.7636141947       -0.1034531651      -15.2139068230
 O        11.4322301261       -0.6990315871      -14.3837696312
 C         9.5573496112        0.7417535287      -14.6774040715
 C         8.8287175475        0.0054178670      -13.5704560823
 C         7.4633557736        0.6659083706      -13.3042022016
 O         7.3436729368        1.8915855845      -13.3184828346
 C         6.2049531644       -0.1951152275      -13.0871085474
 C         5.5018301322       -0.0737427063      -14.4787281225
 O         5.7736704120        0.7429893649      -15.3934215935
 C         4.5518317293       -1.2467001877      -14.8546685319
 C         6.4740664699       -1.7211081871      -12.7279979552
 C         5.2199649048        0.3985612805      -11.9329372880
 C        10.3183937170       -1.3983579321      -17.3022899859
 C        12.7711389752       -0.5152832677      -16.8272683560
 C         7.1884085538        2.9129711900      -17.0358793137
 C         7.9451240809        4.7610797851      -18.7042664072
 C         2.4686759657        6.8339154691      -16.8575317899
 C         3.5134436006        8.7559511238      -15.5597102953
 C         5.7124443328        6.3254628631      -10.3115806046
 C         5.8934285614        3.7163416122       -9.9122200635
 C         1.6706069209        0.4672319295       -7.2004482951
 C         1.8189759215       -0.1650071624       -9.5523425455
 C        -4.7387307199        0.3580775928      -12.8057276471
 C        -3.6478363217        2.6196050734      -12.3759666613
 C        -9.8799994651        1.9907910768       -7.9491197743
 C        -9.8719700928        0.0945321561       -6.3862737636
 C       -11.6881893828       -5.9938341939      -10.8073510168
 C       -12.5967946391       -4.1459728834      -12.1709923970
 C       -16.8325570346       -8.6458907762       -8.0938545621
 C       -17.6990381997       -7.2405174959       -6.0849507845
 C       -11.8296082066       -9.7928939999       -2.6030904072
 C       -11.5919393493      -12.2815679499       -3.2790069093
 C       -16.7296171717      -14.4092057224        1.0007810263
 C       -17.5584625265      -14.7827002534       -1.3712610231
 H       -18.5715674314      -12.7204788671        1.5054430968
 H       -19.7621450161      -12.7262067358        0.1484473777
 H       -19.1293491577      -11.1893955609        0.8071825909
 H       -14.0508030514      -13.8253188936        0.6454693031
 H       -14.8865246681      -12.3611936912        0.6660668746
 H       -12.6292282864      -13.3419511075       -1.0664928361
 H       -12.5625028681      -12.0644368127        0.1543649819
 H       -12.4349427869      -10.1992039678       -5.8310314696
 H       -13.2929344432       -9.0109550587       -4.8898069831
 H       -14.9047359044      -10.9250650532       -6.4733735168
 H       -14.1612209358       -9.5538100299       -7.1285197189
 H       -14.8974656130       -4.9962156415       -7.9005388590
 H       -16.3263730461       -5.8113662556       -8.4839526278
 H       -14.9116097615       -7.1769989166      -10.1175955623
 H       -13.5119278909       -6.9478132823       -9.0503202389
 H       -12.6446423637       -1.7538724933      -10.0313981253
 H       -11.2265038580       -2.2898830242      -10.6197773483
 H       -10.1628065000       -2.5054338799       -8.2768815610
 H       -11.7303872952       -1.8153703009       -7.6997334489
 H        -7.5624381753        1.8048555256       -9.5254218948
 H        -8.0005654611        0.3111835132      -10.5108393600
 H        -5.3828723095       -0.3563196553       -9.7963221586
 H        -5.4160941632        1.1732911447       -8.8433756543
 H        -2.2746436351        2.3076665656      -10.0395159784
 H        -1.2062498236        1.6056889757      -11.1497686046
 H        -0.7266277049       -0.3742674148       -9.6022989810
 H        -1.6768465062        0.6493715466       -8.3447252508
 H         3.0033922705        2.6500047916       -6.9878144335
 H         1.7078840058        3.6468421200       -7.6254324837
 H         4.7747149342        3.8213915652       -7.8135347144
 H         3.5234555605        4.8693038062       -7.0969387144
 H         2.7608781098        5.9385283694      -11.5229910816
 H         2.4853140237        4.7430785233      -12.8750422102
 H         4.5140873754        7.1262146167      -13.1663720327
 H         2.8299095571        7.5543731914      -13.2806918052
 H         6.1206012297        7.5528784723      -15.2213235324
 H         6.5374548593        8.5698015556      -16.6275841395
 H         8.4771180192        7.3873174508      -16.1900879419
 H         7.6224213031        7.1064455790      -17.7618990780
 H        11.2923252311        4.3910249260      -18.0543616926
 H        10.1773799952        3.2424165520      -18.7822891273
 H        12.0717066659        2.4540169257      -16.3687495055
 H        12.4960938264        2.3811418115      -17.9710905984
 H         8.7871475976        0.8683314056      -15.5203517638
 H         9.7931594306        1.7815712207      -14.4467916318
 H         9.3183727591       -0.0254976741      -12.6490391886
 H         8.6568714096       -1.1042518519      -13.8268016460
 H         5.1986190466       -2.1190963372      -15.1172936596
 H         3.9773635847       -1.1177803557      -15.7265615131
 H         3.8421865290       -1.5007090206      -14.1079895831
 H         5.5537046647       -2.2095573196      -12.3431963518
 H         7.1038716017       -1.7074924368      -11.8640705210
 H         6.8694053004       -2.3807487356      -13.5077850721
 H         5.6392682797        0.5825326064      -10.9323847983
 H         4.2751329165       -0.1282383571      -11.6208163842
 H         4.9661552685        1.4950752197      -12.1978979956
 H        10.4147207233       -1.4241483287      -18.3757476211
 H         9.2569665664       -1.2059785156      -17.1730547368
 H        10.7490128736       -2.2835435852      -16.7728053016
 H        13.0834668389       -0.6341596979      -17.8943948640
 H        13.0915614677       -1.4471387897      -16.3139158652
 H        13.3970525632        0.3383508593      -16.4983312005
 H         7.5711502014        2.3574490336      -16.1782822788
 H         7.3109904806        2.1950787840      -17.8164529817
 H         6.1309332469        3.1221773409      -17.0576933359
 H         8.7600235742        5.4375362366      -18.7775983489
 H         7.0346574403        5.3450712524      -18.8299771769
 H         8.2560189269        3.9456958340      -19.3757100154
 H         1.5224284333        7.2349002398      -16.4247107314
 H         2.4618152753        5.8716668441      -17.1572801457
 H         2.4773303946        7.3039689495      -17.8513057267
 H         3.8579901133        9.4410682477      -16.3722742985
 H         4.1896720394        8.9650080551      -14.7314141115
 H         2.5452826249        8.9532039138      -15.2311035876
 H         6.3710722700        6.7224026474       -9.6053914115
 H         5.0496335924        7.1930442553      -10.5624747761
 H         6.3760978092        6.3613678346      -11.1140929945
 H         6.7778624978        3.7121318599      -10.4734472587
 H         5.4433946362        2.7425481158       -9.9607525597
 H         6.3457665812        3.9193697972       -9.0204918054
 H         1.6225587386        1.3820252273       -6.5699991165
 H         2.7217991601       -0.0020286724       -7.0962940219
 H         1.0008308746       -0.4057932034       -6.9162317315
 H         1.0867753634       -0.9691238279       -9.4628220051
 H         2.8328714718       -0.4855395278       -9.4903234771
 H         1.7472335809        0.1024349118      -10.5946566046
 H        -5.0580362287       -0.6076177099      -12.5607447026
 H        -4.1161698262        0.2732102553      -13.6928575427
 H        -5.6627915536        0.8879116521      -13.0365169507
 H        -3.0179578163        2.3934835842      -13.2466905028
 H        -2.9765353138        3.1360941246      -11.7046577810
 H        -4.4990221306        3.2929969066      -12.6792313006
 H       -10.9327787052        2.1065959248       -7.7107731059
 H        -9.8539875837        2.5414529658       -8.8452978962
 H        -9.2316525424        2.4203120983       -7.1176671923
 H       -10.9609704964       -0.0327854673       -6.2271247930
 H        -9.5704282471        0.7829815821       -5.6064226846
 H        -9.4400082366       -0.8501965180       -6.0987316364
 H       -10.6225460762       -5.6254360690      -10.9703861841
 H       -11.9921543896       -6.5855396122      -11.6982374090
 H       -11.6898131914       -6.6420168411       -9.8848327243
 H       -12.3739045379       -4.9553167135      -12.8610820429
 H       -11.8288785612       -3.3840235949      -12.2708967036
 H       -13.5280246356       -3.7065283581      -12.3064152332
 H       -15.9829379662       -8.8318539671       -8.7486576544
 H       -17.3095975647       -7.8961661529       -8.6664771359
 H       -17.4791283920       -9.4934785309       -7.9637898369
 H       -17.3304897441       -6.8284892748       -5.1597202491
 H       -18.4519129605       -7.9706125307       -5.8033581742
 H       -17.9562473124       -6.4021119728       -6.8409931320
 H       -12.5885158104       -9.0559874593       -2.7349946236
 H       -10.9590634211       -9.6645882892       -3.2141333550
 H       -11.5150361248       -9.8948977524       -1.5973038607
 H       -12.1687091537      -13.1954778585       -3.4950992314
 H       -10.9872393421      -12.3691999488       -2.2907689122
 H       -10.8627887262      -12.0995107264       -4.0251391846
 H       -16.4232336398      -13.8022723054        1.7617346282
 H       -16.1366218184      -15.2932380149        1.0203982666
 H       -17.7932101793      -14.7620240620        1.1942996669
 H       -16.8518325874      -15.3594836843       -1.8913747859
 H       -18.2639884465      -14.3619290387       -2.0966662944
 H       -18.1156956233      -15.5032387479       -0.7473312069
 Na      -16.2434476833      -11.3773701942       -3.3029890513
 Na        5.5957862146        3.3261122368      -14.6239716519
