232

 C         0.1620905740       -5.5456745376        5.3202976311
 C         0.4046237503       -6.7209100921        4.3590170064
 O        -0.3482799898       -6.8928144719        3.3669553600
 C         1.3914543942       -7.8159543542        4.7306143985
 C         0.8173507317       -9.1794718939        4.4794857328
 O         0.6086578642       -9.5443992890        3.3008208108
 C         0.4054201798      -10.0786376994        5.7002482307
 C        -0.9163671255      -10.7934326380        5.4088364928
 C        -0.7607621135      -11.8595043366        4.1936264633
 O         0.1817810697      -12.5918292557        4.1655131276
 C        -1.8166570119      -11.9915131064        3.0476137731
 C        -1.1665149033      -11.1456370303        1.8270069883
 O        -1.5525806586       -9.9870041126        1.6745401789
 C         0.1384366709      -11.7389962267        1.1671862727
 C         0.1752784773      -11.3156532787       -0.3400511949
 C         1.2839773381      -10.3115719410       -0.7195597294
 O         1.4954632816       -9.3039306008       -0.0477790580
 C         2.1202837103      -10.4945292695       -1.9630429711
 C         1.5984469635       -9.4517220981       -3.0023338499
 O         1.2817494522       -9.7164698327       -4.1363523019
 C         1.5693765539       -8.0039130955       -2.5192853585
 C         0.3123853091       -7.2044850476       -3.0570922666
 C        -0.6216126030       -6.9661436082       -1.9290146829
 O        -0.4024219788       -7.4270436049       -0.8105884925
 C        -1.9945139447       -6.3168198039       -2.3059621363
 C        -1.6651001126       -4.6972174751       -2.5339429861
 O        -0.7335941504       -4.2705386366       -1.9313597243
 C        -2.6603857436       -4.0305559428       -3.5775594855
 C        -1.8833004040       -3.4333592358       -4.7484952126
 C        -1.2766087470       -4.4899970212       -5.8828766692
 O        -0.2474770567       -5.0606220015       -5.7052531187
 C        -2.1068344061       -4.8760804464       -7.2063527407
 C        -2.5724050909       -3.5710385959       -8.0414555437
 O        -2.3403565201       -2.4919188469       -7.6325757157
 C        -3.2798208152       -3.8963794200       -9.3056949494
 C        -3.7358338288       -2.5243922798       -9.9334515885
 C        -4.4220628771       -2.6953860109      -11.2403970035
 O        -4.3986600440       -3.8409921654      -11.7779014756
 C        -5.2002026335       -1.4600137706      -11.9201027029
 C        -4.3333135717       -0.1047252515      -11.6067757580
 O        -4.3160928312        0.3646339087      -10.5221876112
 C        -3.3478164603        0.5503574913      -12.6611239399
 C        -2.5819534019        1.7211502122      -12.1307753958
 C        -2.0806138083        2.7282296570      -13.1846734040
 O        -1.9345161106        2.4185278538      -14.3307283198
 C        -1.7452634813        4.2202621731      -12.6363017187
 C        -2.8462503111        5.1902482894      -13.2963018701
 O        -3.6693808895        5.6405607093      -12.5222878146
 C        -2.8570428891        5.5407259178      -14.8527211237
 C        -3.1089219020        7.0810124472      -15.1434205811
 C        -3.9743448426        7.3031870736      -16.3837931611
 O        -4.5622364012        6.4053689559      -16.9354766272
 C        -4.3475133898        8.7534897051      -17.0005034703
 C        -3.9939564605        8.7991180268      -18.5066764240
 O        -4.7887990034        8.3189494785      -19.3323030264
 C        -2.7084713187        9.4720929856      -18.9694929729
 C        -1.9591532353        8.4120213395      -19.8746479184
 C        -1.2655155115        7.3620623547      -19.0554759970
 O        -0.9983854651        7.6189959355      -17.9116917493
 C        -0.9486147285        5.9211871330      -19.7241476507
 C        -1.7201032215        4.7996781972      -18.9021781653
 O        -2.9144326016        4.9513073052      -18.6032178696
 C        -1.1843121712        3.4477759913      -18.5985122771
 C        -2.2898423509        2.4124490890      -18.3467674024
 C        -3.0221784295        1.9266136075      -19.6032645850
 O        -2.5297078602        1.9146646867      -20.6817511545
 C        -4.4392547999        1.4263504713      -19.5469481840
 C        -5.1824482964        2.7664637010      -19.6641757206
 O        -5.3011036623        3.5014107479      -18.6937950227
 C        -5.9398894498        3.1113916335      -21.0173202699
 C        -6.6625827634        4.4181214893      -21.0860341745
 C        -7.6612225619        4.7235724939      -19.9669793358
 O        -7.3348171661        5.6284164689      -19.1685519093
 C        -9.1223561936        4.1369948129      -19.7809241358
 C        -9.3146238051        2.5510196700      -20.0758106350
 O        -8.7002902559        2.0315580997      -21.0099625469
 C       -10.1615452704        1.6486212638      -19.2475860758
 C        -9.6109702696        1.1447979951      -17.9036129377
 C       -10.5136751775        0.0291313447      -17.3880587305
 O       -10.4331881733       -1.0861264374      -17.7947318347
 C       -11.6031459802        0.3189962304      -16.2674496860
 C       -10.6763738210        0.2767196068      -15.0158629652
 O       -10.1664363253        1.3005805111      -14.6725835110
 C       -10.4632719410       -1.1864204428      -14.4619053537
 C       -12.2031449742        1.7488628450      -16.3487493268
 C       -12.7171884341       -0.7835531266      -16.4335664728
 C        -9.4910542907        4.4262536787      -18.2992718964
 C       -10.2688119075        4.7554292031      -20.7521273475
 C        -4.7510206560        0.4875085516      -20.6993383072
 C        -4.8385752357        0.7577008674      -18.2092462726
 C        -1.6960670254        5.7228188047      -21.1584670299
 C         0.5102192962        5.5524187622      -19.9030948746
 C        -5.7991933992        9.0332050985      -16.7918138569
 C        -3.6826814381        9.8257267844      -16.0626082649
 C        -1.8759291486        4.3233688588      -11.0212564671
 C        -0.3070346211        4.5717569685      -12.9421515735
 C        -5.4101443356       -1.6642437317      -13.4446365275
 C        -6.5318556952       -1.1778055869      -11.3063025668
 C        -1.2511293003       -5.6926130736       -8.2120550361
 C        -3.2828476033       -5.8529117051       -6.7641201129
 C        -2.8226869198       -7.1017123291       -3.3602242680
 C        -2.9286950013       -6.2763428600       -0.9565690686
 C         3.5596843330      -10.0759099396       -1.6640768713
 C         2.0492304197      -11.9474737629       -2.5504712041
 C        -2.1483472820      -13.4407282440        2.5264625191
 C        -3.1527206266      -11.5029925002        3.6595054016
 C         2.5111020493       -7.4919730358        3.5735478929
 C         2.1580348453       -7.7933153240        6.0841520717
 H        -0.1490217930       -5.8898099463        6.2352129424
 H        -0.6723187962       -4.9254046825        4.9768596338
 H         1.0111839443       -4.8799051661        5.4045832708
 H         0.2936250005       -9.4774224966        6.5828331243
 H         1.0505236937      -10.8422514769        5.9879567628
 H        -1.7838427010      -10.1295628995        5.1917770180
 H        -1.2377685649      -11.3418189744        6.2412247318
 H         0.0613493022      -12.8163746614        1.2462286771
 H         0.9585272152      -11.4431353655        1.7373180516
 H        -0.8282206511      -11.0310371729       -0.6653739450
 H         0.3151407164      -12.2156831771       -1.0175438514
 H         2.4872220008       -7.6299306644       -2.9204931210
 H         1.4403818061       -7.8975132561       -1.4479204700
 H        -0.2109479236       -7.6406477451       -3.9333461421
 H         0.6813026887       -6.2678424572       -3.5483884808
 H        -3.0530045584       -3.2043559322       -2.9895251590
 H        -3.4363369516       -4.6896695253       -3.7913051962
 H        -1.0768510899       -2.6927893329       -4.5416709246
 H        -2.5351222634       -2.9417700568       -5.4480148971
 H        -4.1817077561       -4.4772222988       -9.1377345175
 H        -2.5827176571       -4.3167484664      -10.0284875385
 H        -2.8126697836       -1.8678239961      -10.0314239183
 H        -4.2863986669       -1.8081691815       -9.2079063128
 H        -3.8731810712        0.7894615720      -13.5541044594
 H        -2.7630230741       -0.2594925127      -12.8989673381
 H        -1.6535297761        1.3536511203      -11.5932182245
 H        -3.1934372945        2.3395756543      -11.3555190779
 H        -3.7460714723        4.9592178142      -15.1116153453
 H        -1.9859888018        5.0240618318      -15.2288376359
 H        -2.1735538372        7.6562346530      -15.2346781013
 H        -3.4041464559        7.4700200958      -14.1804258309
 H        -2.1052213540        9.6229743843      -18.0379614082
 H        -2.9286126082       10.5345778147      -19.3318659100
 H        -1.2709098767        8.8991467223      -20.5767552366
 H        -2.7886310441        7.9153502188      -20.4904837928
 H        -0.4605660429        3.4717223399      -17.8092584536
 H        -0.4900091300        3.1638166201      -19.4233741159
 H        -2.8965049384        2.6352793149      -17.4854003607
 H        -1.6401741734        1.5790876940      -17.9400106991
 H        -6.6127921242        2.3096227916      -21.2860310212
 H        -5.1287072547        3.1921962468      -21.7107257182
 H        -7.2254814983        4.5211943867      -22.0069989521
 H        -5.9607185286        5.3148362336      -21.1651892312
 H       -10.5030420766        0.8451744072      -19.8093326894
 H       -11.1353597887        2.1978574728      -19.0561249223
 H        -9.4138199508        1.8803684847      -17.0801986783
 H        -8.6598720562        0.6335379044      -18.1514624548
 H        -9.3919244381       -1.3453309340      -14.0819498898
 H       -10.5295772294       -1.9083051260      -15.2039251273
 H       -11.3150383647       -1.2896826838      -13.7376388063
 H       -12.3887494830        2.0249916672      -15.3061225850
 H       -13.1304186917        1.6972869120      -16.7994961757
 H       -11.5041636092        2.4710707096      -16.8424044397
 H       -13.0946798603       -0.8484781232      -17.4993721946
 H       -13.5724469781       -0.5482781826      -15.8387792730
 H       -12.4182172821       -1.7808809056      -16.1622131032
 H        -8.8698328817        3.7694302396      -17.6520940202
 H       -10.4896888178        4.1616081596      -18.0974717186
 H        -9.6004963984        5.4727245576      -17.9779326617
 H       -10.1451281964        4.5228416349      -21.8016683998
 H       -10.1698491852        5.7841323003      -20.5327060271
 H       -11.1943873127        4.3079411869      -20.4428699824
 H        -5.8070101193        0.3616850714      -20.7077653929
 H        -4.2537079420       -0.4690756043      -20.6059898292
 H        -4.4504358161        0.9410851719      -21.6087655318
 H        -4.0615894030        0.0185129889      -17.9836045542
 H        -5.8249546367        0.2328421357      -18.4184556883
 H        -5.0013934554        1.4350067679      -17.3344837324
 H        -1.3250608781        6.3420833364      -22.0829627550
 H        -2.7605393774        6.0147776002      -20.8699456842
 H        -1.6617695427        4.5920632010      -21.4014998898
 H         0.8903243869        6.0658965324      -20.8038483618
 H         0.6381676058        4.4879851436      -19.9770377875
 H         1.0291962989        5.9480019612      -19.0651681567
 H        -6.3992576264        8.1777977342      -16.6286537303
 H        -6.2345209858        9.5944893102      -17.6709136687
 H        -6.0092447068        9.8215346377      -16.0559430925
 H        -2.6062953286        9.6438086239      -15.9513865468
 H        -4.2587052444        9.7942766808      -15.1600063231
 H        -3.9052776429       10.8239464775      -16.3726393830
 H        -1.4000599268        3.5001098850      -10.4299725623
 H        -2.9798978302        4.3587255032      -10.8273136779
 H        -1.4808871314        5.3108475453      -10.7734332439
 H        -0.1519100439        4.6638575984      -14.0260056461
 H         0.3548824544        3.7925540742      -12.5904424133
 H        -0.1005365125        5.5182758429      -12.5418153299
 H        -4.3565744336       -1.8303794353      -13.7976981555
 H        -5.8689675713       -0.7850435277      -13.8867746877
 H        -6.0433796600       -2.4572851339      -13.6666854766
 H        -7.1013610793       -0.3012010619      -11.7517891311
 H        -6.4765566385       -1.1212615255      -10.2187987250
 H        -7.2425370829       -2.0329947259      -11.4548265470
 H        -0.6947226023       -6.4127893136       -7.5717406750
 H        -0.4184118457       -5.0990564074       -8.6051561649
 H        -1.8028416166       -6.1684982379       -9.0652738248
 H        -3.0279098503       -6.9120357518       -6.5310860611
 H        -4.0693051560       -5.8179885226       -7.6025775508
 H        -3.8627880702       -5.4125891865       -5.9370245175
 H        -2.6812581395       -8.1348162803       -3.0933438433
 H        -2.4331672220       -6.8298387904       -4.3808296007
 H        -3.8631973500       -6.7444561853       -3.3645312278
 H        -3.8700862703       -5.7755485980       -1.2334287981
 H        -2.3732644611       -5.7771298668       -0.1275599185
 H        -2.9904890738       -7.2750506042       -0.5404213782
 H         3.5555885720       -9.1723191712       -1.0210782001
 H         4.1138432321       -9.9101121886       -2.6416164727
 H         4.0573011510      -10.8226260383       -1.1162350656
 H         2.6715887904      -11.9535671621       -3.3788194909
 H         1.0701221552      -12.2087984084       -2.9759705493
 H         2.3140537116      -12.6569231516       -1.7785641866
 H        -2.8315812608      -13.9264711670        3.2641588255
 H        -1.2741622607      -14.1234639353        2.3438986134
 H        -2.7840608039      -13.3230473545        1.5874243982
 H        -4.0025304672      -11.9662992416        3.1072315844
 H        -3.3303279832      -10.4231222040        3.5619747775
 H        -3.2555961115      -11.8676903097        4.7012691166
 H         2.7188192101       -6.4096754352        3.3733020186
 H         2.1741286055       -7.9593846597        2.6255807097
 H         3.5063312034       -7.8938501401        3.8535071571
 H         2.3870330301       -8.8453150259        6.2911833561
 H         1.6956047233       -7.4157618458        6.9925280241
 H         3.1382154638       -7.2153546097        6.0654562454
 Na       -0.0221098931       -8.1262538426        1.3923453059
 Na       -5.1933133745        5.9997119342      -18.8878678241
