232

 C         0.3383742756       -5.3826122491        5.1267095719
 C         0.2450811935       -6.6642083278        4.3769574704
 O        -0.5371338954       -6.8811058521        3.4854138722
 C         1.4845603996       -7.7645002138        4.5864358775
 C         0.8327978267       -9.1392833103        4.3648593867
 O         0.7155049454       -9.6216852814        3.2390433597
 C         0.4257019295      -10.0156377513        5.5611588174
 C        -0.7912508938      -10.9268813949        5.3710935535
 C        -0.7344219909      -11.9470125579        4.1764417848
 O         0.2648195869      -12.6203942959        4.1367573857
 C        -1.9154749876      -12.0044229481        3.0881033716
 C        -1.1320352293      -11.1575819350        2.0095187625
 O        -1.3801216007       -9.9390251034        1.7749849339
 C         0.0883459033      -11.6863164146        1.2476874914
 C         0.0617686799      -11.3128904574       -0.2637607399
 C         1.2644886132      -10.4094319245       -0.6774213433
 O         1.4547501551       -9.3838704341       -0.0658195109
 C         2.1312181822      -10.5557232504       -2.0068937489
 C         1.5673192980       -9.4308194177       -3.1220870037
 O         1.3694169923       -9.7899119413       -4.2827989269
 C         1.5634334608       -7.9674073121       -2.5594284659
 C         0.3245928343       -7.2135307484       -3.1023769145
 C        -0.7354449459       -7.0605531363       -1.9799506663
 O        -0.5438565219       -7.5139925018       -0.8674475380
 C        -2.0695419506       -6.3292534900       -2.3081229768
 C        -1.6902305301       -4.8925300849       -2.5613484612
 O        -0.7792378817       -4.3768027873       -1.9830556528
 C        -2.5382135007       -4.0619589310       -3.5597626105
 C        -1.8882239170       -3.5600534669       -4.7883380532
 C        -1.3331363243       -4.5582224580       -5.9007160371
 O        -0.1910524374       -4.8942023783       -5.6436631521
 C        -2.0202719434       -4.9620161885       -7.2069132166
 C        -2.5327213201       -3.7417143347       -7.9387963073
 O        -2.2659995623       -2.6336806921       -7.4728467228
 C        -3.3067076549       -3.7983683374       -9.3026210767
 C        -3.5941861513       -2.3578288332       -9.9085500675
 C        -4.3483369154       -2.5598592875      -11.1803777246
 O        -4.5169939452       -3.6769006154      -11.6926596440
 C        -5.0925096754       -1.3332844728      -11.9084378687
 C        -4.2994285340       -0.0745528286      -11.5723695877
 O        -4.5317538703        0.5297416233      -10.5502684484
 C        -3.3411231694        0.5481860289      -12.6281333840
 C        -2.6979506312        1.6998850712      -11.9900340648
 C        -2.1001375997        2.7137135178      -12.9639469083
 O        -2.0231028367        2.4223612841      -14.1511584614
 C        -1.7517961308        4.2114859639      -12.6138529594
 C        -2.7944082019        5.2633914655      -13.3218525231
 O        -3.6258448963        5.8023290157      -12.5981093777
 C        -2.6288396455        5.6370909499      -14.8566571419
 C        -3.1651462805        7.1330359319      -15.1717836004
 C        -4.0738947518        7.3248937371      -16.3793392060
 O        -4.6901628398        6.4013301521      -16.8660667815
 C        -4.4330871879        8.8632572767      -16.8645811198
 C        -4.0378821942        8.8754754618      -18.4093540748
 O        -4.7928432116        8.3943254231      -19.2586977863
 C        -2.7611345080        9.4884851325      -19.0986827749
 C        -1.9772020312        8.4035495566      -19.8959130480
 C        -1.2190467506        7.3688657048      -19.0406867438
 O        -0.8327461357        7.7006337400      -17.9517068984
 C        -1.0557202343        5.8247528701      -19.7491377802
 C        -1.8879401811        4.7231576261      -18.9396754185
 O        -3.0787061910        4.9653494816      -18.7180298182
 C        -1.2117914968        3.3302393969      -18.5348294387
 C        -2.3055301652        2.2593746570      -18.2268849110
 C        -2.9266071367        1.8940517541      -19.5084012285
 O        -2.3199624510        1.9756062575      -20.5558695500
 C        -4.5978339449        1.3232814891      -19.4750408592
 C        -5.2969245228        2.6871528512      -19.4976973482
 O        -5.1546898395        3.5373523491      -18.6641237362
 C        -5.9152052402        3.0616345238      -20.9545636171
 C        -6.6997849818        4.3866162586      -21.1382461493
 C        -7.8209383712        4.6861229306      -19.9394958029
 O        -7.5258578890        5.5095179924      -19.1426980888
 C        -9.1796158973        4.0060469150      -19.6199281665
 C        -9.1518889634        2.5450284610      -20.0763758435
 O        -8.5266149928        2.1893499218      -21.0644906661
 C       -10.1575446440        1.6458975732      -19.3374891936
 C        -9.6780783853        1.1996100654      -17.9293368515
 C       -10.6485538371        0.0524210953      -17.4626773195
 O       -10.5488637966       -1.0987184321      -17.9373414240
 C       -11.6330177199        0.4102428981      -16.3237329693
 C       -10.6838461582        0.1544979610      -15.0572054413
 O       -10.0206225291        1.0440798052      -14.5389993423
 C       -10.4754908509       -1.2570043825      -14.6529320258
 C       -12.2649260245        1.8766737233      -16.3854012531
 C       -12.7809499970       -0.5820302584      -16.4887099513
 C        -9.6603090393        4.2811639800      -18.2218931918
 C       -10.2097355707        4.8528204904      -20.5491396144
 C        -4.7352567954        0.3874076572      -20.6588824331
 C        -4.8463504609        0.6031215601      -18.0701101804
 C        -1.7219282104        5.6881043771      -21.1085273496
 C         0.4995283631        5.5068746808      -19.9814931646
 C        -5.9886720386        9.0017240830      -16.6605725859
 C        -3.3692359003        9.8624290338      -16.1026248748
 C        -1.8205340319        4.3526081535      -11.0479190641
 C        -0.3162640971        4.6065393399      -12.9976881326
 C        -5.3248948181       -1.6394721159      -13.3784854593
 C        -6.4947095245       -1.3279440881      -11.1326126162
 C        -1.0279033347       -5.6501123341       -8.1920043230
 C        -3.2538245012       -5.8579408316       -6.8457073736
 C        -2.7551333126       -7.0359527930       -3.4529525703
 C        -2.9412652714       -6.3051549823       -0.9287149473
 C         3.5826933893      -10.1446769173       -1.7368393326
 C         2.0860465029      -11.9935079221       -2.6592101068
 C        -2.1694459502      -13.3905137645        2.6305244761
 C        -3.2837378651      -11.3981065574        3.5674670358
 C         2.5494322618       -7.5834571084        3.4398729496
 C         2.2043952586       -7.4725676096        5.9626985933
 H         0.3714988214       -5.5209746217        6.2182669041
 H        -0.4769561731       -4.6311645485        4.9908589359
 H         1.2573639632       -4.9750034414        4.7695273611
 H         0.2612033295       -9.4159137521        6.4410531501
 H         1.1968405524      -10.6941525690        5.8746706814
 H        -1.7171049547      -10.4122119509        5.3352271159
 H        -0.9141678644      -11.5235135311        6.2256923816
 H         0.1781950603      -12.7938305186        1.3866789573
 H         1.0159861441      -11.2145986095        1.7991969290
 H        -0.8131049145      -10.7738704752       -0.4009198764
 H        -0.0833117629      -12.1117200540       -0.9583037049
 H         2.4948787017       -7.6223398935       -2.9906907118
 H         1.5234195621       -7.9257512515       -1.4787555503
 H        -0.0076599522       -7.6735700328       -4.0346823106
 H         0.6386097088       -6.2470139954       -3.5475402605
 H        -2.9382100858       -3.2147875617       -3.0201436452
 H        -3.3665159804       -4.6793054753       -3.7835049808
 H        -0.9829798932       -3.0442801729       -4.6253620284
 H        -2.4751416234       -2.7847251993       -5.3468971370
 H        -4.3147971914       -4.2508513286       -9.2547358079
 H        -2.7200567813       -4.2000655971      -10.1565884090
 H        -2.6633686748       -1.7280899017      -10.0112827402
 H        -4.1880664885       -1.6167597809       -9.2903732296
 H        -4.0414161283        0.9533187690      -13.3750120259
 H        -2.8300346233       -0.3296674930      -13.1551153794
 H        -1.8079769318        1.3813353407      -11.3449811704
 H        -3.4111721141        2.1857229326      -11.3477355411
 H        -3.1761045304        4.7872192293      -15.2888212005
 H        -1.6390551487        5.4629599353      -15.0134515641
 H        -2.2847373983        7.7465275539      -15.2991765273
 H        -3.4642536357        7.4785205568      -14.2005514799
 H        -1.9803026491        9.9302546827      -18.4035400038
 H        -3.1721849108       10.3304804870      -19.6409438287
 H        -1.2285458642        8.9646462422      -20.4669562438
 H        -2.6808876326        7.9153576889      -20.6324107080
 H        -0.3709788820        3.4933513337      -17.7767808384
 H        -0.5432457855        3.0710871055      -19.4052370120
 H        -3.1119162883        2.7130202027      -17.6555511708
 H        -1.9364578179        1.4440425740      -17.6070997049
 H        -6.4939957732        2.1857566868      -21.4214628449
 H        -4.9787252011        3.1994227205      -21.4752775693
 H        -7.0637612347        4.4837326877      -22.1277412078
 H        -6.0666978541        5.2774609648      -21.0241060112
 H       -10.4510708527        0.7605767508      -19.9774446087
 H       -11.0918265862        2.1436814982      -19.2462639902
 H        -9.6136473169        1.9745465554      -17.2292315663
 H        -8.6233636048        0.7623605795      -18.0457247349
 H        -9.5900717997       -1.2450524459      -14.0036245122
 H       -10.0784684761       -1.7439654360      -15.5309834177
 H       -11.3640366518       -1.7246761825      -14.2953311571
 H       -12.5739917410        2.0352795145      -15.3709073504
 H       -13.1924349582        1.8661196056      -16.9813551334
 H       -11.5861513185        2.5932286281      -16.7342339293
 H       -13.0890157335       -0.4982563957      -17.4491350080
 H       -13.6017716375       -0.2677004196      -15.8842816015
 H       -12.5479209974       -1.6228050077      -16.3173579262
 H        -8.9090593600        4.0777793248      -17.4893012640
 H       -10.5919273734        3.7565979465      -17.8602094517
 H       -10.1380510521        5.3337078196      -18.1701391106
 H        -9.8615144254        4.8227567764      -21.5259562019
 H       -10.1789182715        5.8495520715      -20.0834017301
 H       -11.1883032674        4.3680479333      -20.4963509392
 H        -5.7818341241        0.0256590092      -20.7354840304
 H        -4.0211927209       -0.4270183327      -20.5496937551
 H        -4.4550930627        0.9182255502      -21.5840479897
 H        -4.0954911201       -0.2078015824      -17.9715165446
 H        -5.8536091786        0.2162008103      -17.9909775779
 H        -4.6650545438        1.3419537254      -17.1803880917
 H        -1.0149277828        6.3106988983      -21.8091451486
 H        -2.8280471102        5.9991821285      -21.2202211797
 H        -1.5545076499        4.6740276453      -21.3924249393
 H         0.9169923973        6.0731257962      -20.7970049487
 H         0.6407235722        4.4729426778      -20.1694559497
 H         0.9474510546        5.7827731206      -19.0879606115
 H        -6.5017638451        7.9737085814      -16.6950491039
 H        -6.4343582493        9.5713373039      -17.5179909103
 H        -6.3607497550        9.5958342607      -15.8333496955
 H        -2.3324354000        9.6423947122      -16.4097272340
 H        -3.5851421766        9.9473586189      -15.1253129336
 H        -3.5815287841       10.7956110508      -16.4947412112
 H        -1.1455104591        3.6376322922      -10.5937276317
 H        -2.8349881533        4.1869059371      -10.6843546503
 H        -1.4352862259        5.3739652910      -10.8065217186
 H        -0.3065783691        4.6388125444      -14.0878603079
 H         0.4188940961        3.8613577031      -12.7307890972
 H        -0.0749017047        5.6042425252      -12.6393334310
 H        -4.3920098934       -2.1668432029      -13.8044063188
 H        -5.6024328063       -0.7581102824      -13.9165350635
 H        -6.2743087167       -2.2812786063      -13.4433105264
 H        -7.1768600065       -0.5085339625      -11.5726446334
 H        -6.4128193464       -1.1674504124      -10.0692171648
 H        -7.1161203302       -2.2580195269      -11.2441081183
 H        -0.5020241119       -6.4099635708       -7.6150165659
 H        -0.2602926284       -4.9238051277       -8.4135081658
 H        -1.4282039095       -6.0444914576       -9.1298487231
 H        -2.9084494370       -6.8435973273       -6.4855466730
 H        -3.9375751418       -5.9787358480       -7.6783740488
 H        -3.8936558328       -5.4048731322       -6.1158341172
 H        -2.7175901933       -8.0624737486       -3.1711516961
 H        -2.2114260263       -6.8356420122       -4.3518928051
 H        -3.7908576328       -6.6010522024       -3.6204699494
 H        -3.7986030857       -5.5771421792       -1.1054183198
 H        -2.2978971972       -6.1031409499       -0.0504605889
 H        -3.2158252029       -7.2973821394       -0.6948479822
 H         3.5394179026       -9.2243953310       -1.1096981135
 H         4.1326022357       -9.9963507955       -2.6513530429
 H         4.0813088318      -10.8690197933       -1.1564607019
 H         2.8254924697      -12.1119167434       -3.4351722469
 H         1.1811841145      -12.2549591356       -3.0787056281
 H         2.2705214214      -12.6086140565       -1.7881382747
 H        -2.9355663578      -13.8842194177        3.3146806402
 H        -1.2229343051      -13.9147961917        2.7510166836
 H        -2.5387290811      -13.4850249284        1.6221985013
 H        -4.1096201135      -11.4328372522        2.8744086637
 H        -3.2263912183      -10.3519749529        3.8345655667
 H        -3.5843853580      -12.0128722676        4.4285876722
 H         2.8579775963       -6.5605849569        3.4867581134
 H         2.2088778817       -7.8173908982        2.4732667318
 H         3.4957975252       -8.0633364870        3.6802655822
 H         2.8878599688       -8.3487724019        6.3221160845
 H         1.3591827659       -7.5745737265        6.7122321718
 H         2.6998706399       -6.5238594003        6.1934177071
 Na       -0.0142335168       -8.0474644920        1.2770828618
 Na       -5.2388278427        5.9411314151      -19.1039447352
