232

 C         0.4623388156       -5.0958846897        4.6439342761
 C         0.3300720226       -6.5518161099        4.1022379170
 O        -0.6732378336       -6.9466472335        3.4346901273
 C         1.4814239781       -7.5857242025        4.4402250847
 C         0.8975083409       -9.0877507258        4.3033140806
 O         0.8684328477       -9.5918369311        3.1725464217
 C         0.6172615928       -9.9436575248        5.5374517003
 C        -0.6016290049      -10.8839651384        5.3486157136
 C        -0.6466011706      -11.8935948963        4.1905663893
 O         0.2535983717      -12.6998929197        4.1179872267
 C        -1.7161348684      -11.9125458613        3.0621765235
 C        -1.1190090267      -11.0075034862        1.9293096104
 O        -1.5197091233       -9.8911930811        1.9312109142
 C        -0.0169265679      -11.6499433549        1.0824787411
 C         0.0031873380      -11.3135815468       -0.4026368328
 C         1.2558464501      -10.4093209646       -0.7127863311
 O         1.6225371280       -9.5599881006        0.1231881101
 C         2.0379098379      -10.5598886307       -2.0188516828
 C         1.5565487017       -9.5308582101       -3.1168104306
 O         1.3543570222       -9.9434490395       -4.2272012429
 C         1.6323361745       -7.9568540143       -2.8892145248
 C         0.2949070941       -7.2807236699       -3.0574244661
 C        -0.7385444289       -7.2697571061       -1.9738327248
 O        -0.5900142439       -7.8286560783       -0.8982778245
 C        -2.1290312718       -6.4049347156       -2.3969189893
 C        -1.6914452769       -4.8960399706       -2.6824368740
 O        -0.7336107596       -4.4263621145       -2.1551730531
 C        -2.6464121740       -4.1232149850       -3.5970862189
 C        -1.9194808798       -3.6006462793       -4.8290113754
 C        -1.2260019232       -4.5461310067       -5.7484701715
 O        -0.1288135830       -5.0009028263       -5.5473043960
 C        -1.8745629940       -4.9274036938       -7.1462212754
 C        -2.3895443083       -3.5459522876       -7.8925166446
 O        -2.1453547814       -2.4891295483       -7.4124189957
 C        -3.2200839947       -3.7160379963       -9.0654309989
 C        -3.4332736670       -2.3914218172       -9.8339971239
 C        -4.2994492763       -2.5268982013      -11.1733915893
 O        -4.4659521941       -3.6751265065      -11.5818983045
 C        -5.1894776504       -1.2218948255      -11.7742555009
 C        -4.4915524566        0.1290043656      -11.3848898824
 O        -4.8799145966        0.8302740489      -10.4710628042
 C        -3.3742981025        0.6824673670      -12.3765875611
 C        -2.7094372058        2.0295513284      -11.8723144391
 C        -2.2569788496        2.9542140957      -13.0346648933
 O        -2.1267162812        2.5344427325      -14.1572728057
 C        -1.7633606969        4.3599279875      -12.6752029233
 C        -2.6865274264        5.4365527841      -13.3122848391
 O        -3.5146640450        5.9880638166      -12.6694992840
 C        -2.5441164031        5.8281619573      -14.8164894623
 C        -3.1409524651        7.1313009542      -15.0540153597
 C        -3.9790404055        7.2829193725      -16.2697133619
 O        -4.6942039196        6.3728099609      -16.6983447002
 C        -4.1605701570        8.7551899965      -16.8370093110
 C        -4.0761811977        8.6263517290      -18.4283193488
 O        -4.9715063244        8.1596699003      -19.1189698521
 C        -2.8595006775        9.2774543859      -18.9952402385
 C        -2.0909065438        8.2931145737      -19.9114070515
 C        -1.2595483772        7.2075270178      -19.1847619479
 O        -0.6197627601        7.4089229127      -18.1694598906
 C        -1.0964618320        5.8091589916      -19.9247681798
 C        -2.0444101580        4.7730693108      -18.9652165879
 O        -3.2316536879        4.9185536529      -18.7666146499
 C        -1.2849920241        3.5425411918      -18.2823136397
 C        -2.3023793421        2.4870993321      -18.0539657029
 C        -2.9228489091        1.8526174553      -19.3835431604
 O        -2.3361350649        1.8478264574      -20.4180529348
 C        -4.4372163845        1.3556175287      -19.3278371341
 C        -5.2536177019        2.6550062058      -19.5371636160
 O        -5.3415180160        3.3969560375      -18.5503342723
 C        -5.8597890086        2.9434456669      -20.8766721617
 C        -6.8469925767        4.2647956813      -20.9097048526
 C        -7.7262866165        4.7086753327      -19.7294081997
 O        -7.4430910224        5.6422030666      -18.9136750425
 C        -9.2582065335        4.0850637919      -19.6164005452
 C        -9.2536556197        2.5109713522      -20.1118682656
 O        -8.5900599905        2.1859412516      -21.0894346241
 C       -10.1736052948        1.4555415055      -19.5751710202
 C        -9.7882876970        0.9924561127      -18.1973122531
 C       -10.7539363834        0.0470118935      -17.6340973550
 O       -10.8649631704       -1.0365338442      -18.1175447036
 C       -11.6489697818        0.4008967830      -16.3504402659
 C       -10.7746346589       -0.0471759089      -15.1647311152
 O       -10.1447009032        0.7915086716      -14.6021591793
 C       -10.5609107068       -1.5601077250      -14.9660124212
 C       -11.9490269027        1.9011880379      -16.2219555329
 C       -12.9869864852       -0.4147057733      -16.3319577498
 C        -9.7316989049        4.3192790380      -18.1111959896
 C       -10.1411190888        4.8757742562      -20.6435108706
 C        -4.6906678474        0.3219504528      -20.4829605984
 C        -4.8423334351        0.6131495477      -17.9824161747
 C        -1.7638134255        5.7759470842      -21.3666641480
 C         0.3561982800        5.5350855021      -19.6735093614
 C        -5.6133971934        9.1785603598      -16.5209440773
 C        -3.3748438897        9.9045216440      -16.1044725046
 C        -1.8168086786        4.7253818702      -11.1075619141
 C        -0.3161505355        4.3994784802      -13.1621394532
 C        -5.2521447443       -1.5681415095      -13.2517707757
 C        -6.4802119033       -1.3690185000      -10.9745873711
 C        -0.8247580563       -5.6870074999       -7.9562358380
 C        -2.9977131743       -5.9312713961       -7.0632888659
 C        -2.9038444302       -7.1761836772       -3.5929245729
 C        -3.1004568128       -6.4621344240       -1.1927361009
 C         3.5375761149      -10.2938232271       -1.6890066364
 C         1.8864055830      -11.9547619238       -2.6893641068
 C        -2.0107668606      -13.3267236398        2.7231198991
 C        -3.0931383653      -11.1647252808        3.4098042035
 C         2.5943636236       -7.3992218377        3.2568899525
 C         2.2079175901       -7.4350327446        5.8052684063
 H         0.3074547609       -5.0457570393        5.7047419923
 H        -0.3642333254       -4.4514034509        4.2990574299
 H         1.4293060806       -4.5607094568        4.3569845058
 H         0.5084675760       -9.3231391204        6.4746119506
 H         1.5511983807      -10.5514410304        5.7386395001
 H        -1.5857165706      -10.3097210624        5.4355226510
 H        -0.7459564487      -11.5996178064        6.2200517277
 H        -0.0908206142      -12.7434400911        1.1657393047
 H         0.9060366147      -11.4185602580        1.4999214143
 H        -1.0061791926      -10.9637137831       -0.7890735657
 H         0.1720308362      -12.2723781627       -0.9612304067
 H         2.3800467137       -7.5724186115       -3.6323487633
 H         1.9829555921       -7.8079184417       -1.8379710445
 H        -0.1325842838       -7.7689730444       -3.9492551936
 H         0.3756597168       -6.3251696817       -3.5377051758
 H        -3.0712768699       -3.1527126211       -3.1823004462
 H        -3.5157205895       -4.8243857691       -3.7802832353
 H        -1.1451461870       -2.7986118638       -4.5979714869
 H        -2.5510725251       -2.9809821177       -5.4276339999
 H        -4.1811989914       -4.1633682560       -8.8011463541
 H        -2.7350229199       -4.3342373939       -9.8046426052
 H        -2.4410794548       -2.1153339980      -10.0814771764
 H        -3.7832894522       -1.6152159186       -9.2161604621
 H        -3.8817647597        0.8104784186      -13.3748873042
 H        -2.7254348961       -0.1367317501      -12.5163080536
 H        -1.8870809221        1.8146726498      -11.2943276366
 H        -3.3890011320        2.6477120740      -11.2824070487
 H        -3.0224222453        5.0611095644      -15.4302361581
 H        -1.4032050402        5.7796157723      -15.0207570379
 H        -2.4053021874        7.8888652382      -14.7477634750
 H        -3.9289524607        7.2936688548      -14.2408494136
 H        -2.2638993905        9.6361244262      -18.2245030900
 H        -3.2321991545       10.1643702231      -19.5295810058
 H        -1.4157159048        8.8856242380      -20.5096986223
 H        -2.8135288235        7.8700455961      -20.5550830397
 H        -0.8255989782        3.9063599811      -17.4003807209
 H        -0.4117534001        3.2367430911      -18.8335223181
 H        -3.1310209223        2.8941706262      -17.4299331984
 H        -1.8597794375        1.6272932190      -17.4787068326
 H        -6.3109304101        2.0681827311      -21.2472493459
 H        -5.0029070600        3.2689132048      -21.5650347904
 H        -7.5547772771        4.1801080923      -21.7789668694
 H        -6.2327288091        5.1507775445      -21.0448114795
 H       -10.0341454115        0.6285801167      -20.2185604956
 H       -11.2606424363        1.7681705774      -19.7394625457
 H        -9.5674330038        1.8867943948      -17.5323207733
 H        -8.8665406015        0.5039843878      -18.2942639818
 H       -10.3480904397       -1.7444020772      -13.8697532340
 H        -9.7050666184       -1.8648385542      -15.5322004260
 H       -11.4582715611       -2.1300060490      -15.2397105656
 H       -12.9173459169        1.9673170592      -15.7186643747
 H       -12.0391791908        2.2250593468      -17.2301341540
 H       -11.0932589647        2.4806519555      -15.7661040146
 H       -13.8102323122        0.1283789208      -16.9653906185
 H       -13.3331162308       -0.4667783612      -15.2923057371
 H       -12.8329877883       -1.3942024469      -16.7742297069
 H        -9.2059342548        3.6215230264      -17.4222642421
 H       -10.7433788667        4.1747982644      -17.9045980288
 H        -9.5860727384        5.3172646353      -17.8062273996
 H        -9.6714403138        4.6029333890      -21.6464314296
 H       -10.1420047653        5.9145762891      -20.3294786181
 H       -11.1720467663        4.4884207612      -20.5640588172
 H        -5.7416710531        0.0348944687      -20.6038860249
 H        -4.0149383698       -0.5375524968      -20.2700540440
 H        -4.2564717068        0.7124434635      -21.4147905166
 H        -4.3048958913       -0.2977513983      -17.9592039764
 H        -5.9048522252        0.3631868507      -18.1097513424
 H        -4.6086185373        1.1037239484      -17.1071704579
 H        -1.5591571035        6.5994854988      -21.9756893216
 H        -2.7393078079        5.7470439831      -21.1772872047
 H        -1.4767752714        4.8954889521      -21.8835651989
 H         0.8757960176        6.4508895092      -19.9902936899
 H         0.6859874953        4.7748563274      -20.4072482060
 H         0.5924808960        5.2568015453      -18.6270997854
 H        -6.3603458346        8.7122155392      -17.0767326284
 H        -5.7839746567       10.2517148390      -16.6753588765
 H        -5.8549992596        8.9661694058      -15.4407870879
 H        -2.2942407931        9.7630472427      -16.1641923477
 H        -3.8337719845        9.9265443061      -15.0566847926
 H        -3.5777910329       10.9114176379      -16.6009443451
 H        -1.0844458403        4.1140309421      -10.5745749903
 H        -2.8156710824        4.4690227880      -10.8063576475
 H        -1.5046463783        5.6953237185      -10.8914566554
 H        -0.1878768268        3.7334630524      -14.0337776138
 H         0.3502091297        4.0116727932      -12.3649067023
 H        -0.0097372096        5.4311069936      -13.3635496829
 H        -4.2449853426       -1.7544410614      -13.5569864991
 H        -5.7091103123       -0.6748429499      -13.7556555641
 H        -5.8885921710       -2.3492346844      -13.4531959067
 H        -7.1964502868       -0.7280501558      -11.4214557554
 H        -6.5032869587       -1.0542474999       -9.9335623000
 H        -6.8594947692       -2.3552465005      -11.0617287645
 H        -0.6106425423       -6.6952873941       -7.5849852376
 H         0.0463388829       -5.1023483212       -8.2515200157
 H        -1.3462162505       -5.9205502361       -8.9121825242
 H        -2.6651103729       -6.7167642338       -6.4626218387
 H        -3.3686877443       -6.3017321497       -8.0038163919
 H        -3.9184436497       -5.5078416453       -6.7220068071
 H        -3.1073614716       -8.2043842875       -3.2977268370
 H        -2.3946280821       -7.1223308109       -4.5708691233
 H        -3.8141169869       -6.6748633602       -3.6476919357
 H        -3.8645037842       -5.7823346211       -1.4078490142
 H        -2.6301816546       -6.3252072123       -0.2418318955
 H        -3.5065168047       -7.4881312461       -1.0721692080
 H         3.6275982925       -9.3862099138       -1.1268427656
 H         4.2224562818      -10.4166195434       -2.5521920474
 H         3.7527238915      -11.1202245554       -0.9906117997
 H         2.4585723171      -11.9680980335       -3.6113693019
 H         0.7815477237      -12.0655012572       -2.9803237874
 H         2.1975476311      -12.7239719104       -1.9743131355
 H        -2.6389447424      -13.7338719881        3.4281689220
 H        -1.0903791401      -13.8627659804        2.7657226018
 H        -2.4637285084      -13.4584045481        1.7581815364
 H        -3.6775593923      -10.8800292309        2.5392465065
 H        -3.0039765389      -10.1960966870        3.8708414847
 H        -3.7080975432      -11.7866947471        4.0212625581
 H         3.3419084918       -6.6354129645        3.3838462416
 H         2.0352272702       -7.2761272634        2.3353206962
 H         3.2337508177       -8.2422720823        3.1963274638
 H         3.1106853726       -7.9554573035        5.8552619306
 H         1.7534263377       -7.5704339862        6.7642550010
 H         2.6254663941       -6.4035815831        5.7268122838
 Na       -0.0778980787       -8.2443236230        1.4026508482
 Na       -5.2215202917        5.9864668699      -19.1419556659
