232

 C         0.4969452987       -5.1558710191        4.2064441733
 C         0.4354910087       -6.6558255355        3.7845804243
 O        -0.4074317890       -6.9579731452        2.9363676641
 C         1.6466172470       -7.4754041280        4.2047479260
 C         1.2325551831       -9.0109109295        4.2046544450
 O         0.9785226342       -9.6054106315        3.1467195808
 C         0.8167191577       -9.8066070550        5.4380520860
 C        -0.5854626772      -10.4461449222        5.2014436530
 C        -0.4373726643      -11.6795342179        4.1404033832
 O         0.4664107906      -12.4996302042        4.2564847273
 C        -1.7003976546      -11.7803701435        3.2038216941
 C        -1.3400453901      -11.1313172233        1.7974487617
 O        -2.0648320566      -10.2659889345        1.4423338328
 C        -0.2034409127      -11.5937668568        0.9099223194
 C        -0.1218138151      -10.9801512057       -0.4561087344
 C         1.2381320701      -10.3827218885       -0.7064523362
 O         1.6882177116       -9.4269744361       -0.0584416804
 C         2.0209601594      -10.7173309446       -2.0621080236
 C         1.4738127814       -9.5544926877       -3.0250310203
 O         0.9560128878       -9.9224012239       -4.0422147928
 C         1.5961762742       -8.1047764631       -2.6608759561
 C         0.3172928870       -7.3909561335       -3.0962748237
 C        -0.7571453475       -7.4742891145       -2.1251713446
 O        -0.6981808277       -8.0044278641       -1.0116751340
 C        -2.0460965647       -6.7745562688       -2.5062039587
 C        -1.7523947164       -5.2836918991       -2.9080735227
 O        -0.8257098046       -4.7370362031       -2.3733519192
 C        -2.7138621553       -4.3753708724       -3.7051148307
 C        -1.9830424438       -3.5730240849       -4.7499896511
 C        -1.2337804590       -4.5184993056       -5.6059781515
 O        -0.4672333010       -5.3516888890       -5.1359745753
 C        -1.7017748591       -4.7067446231       -7.1115707952
 C        -2.1020477646       -3.3126794373       -7.8480658959
 O        -1.4954691372       -2.3183161669       -7.6048141774
 C        -3.0603306940       -3.4844134661       -9.0320370565
 C        -3.3668932007       -2.1704984392       -9.7764418445
 C        -4.2729416897       -2.2935203386      -11.0668295536
 O        -4.3339499020       -3.3633865021      -11.6079322509
 C        -5.1484479990       -1.1685619530      -11.5672542556
 C        -4.6256117897        0.3168082993      -11.2743141772
 O        -5.0666407779        0.9698598003      -10.3418197822
 C        -3.3829319606        0.9052239440      -11.9826080730
 C        -3.2094146312        2.3992824281      -11.6299851660
 C        -2.4733435638        3.1379512566      -12.8131680259
 O        -2.6602457887        2.7611943942      -13.9519512193
 C        -1.6477421435        4.4132522937      -12.5515440267
 C        -2.6510633146        5.5415784029      -13.1266736334
 O        -3.5064305523        6.0024460786      -12.4668729638
 C        -2.5519863221        5.7931028737      -14.6453893216
 C        -2.9487757280        7.2458394307      -14.9058324092
 C        -3.7568142797        7.4604842499      -16.1937371762
 O        -4.3008000194        6.4412163497      -16.6231033470
 C        -4.0810945224        8.9185808167      -16.7914270096
 C        -4.0186292557        8.7243334616      -18.3601427274
 O        -4.8663272916        8.1329944623      -18.9760136840
 C        -2.8156460134        9.2542211233      -19.0876726993
 C        -2.3273721598        8.1312397300      -20.0482058280
 C        -1.2593285406        7.1334967479      -19.4003640601
 O        -0.9957671739        7.3459442084      -18.2128048684
 C        -0.9569946560        5.6419901720      -20.0640588569
 C        -1.9345954173        4.7679884840      -19.2125881038
 O        -3.1232240752        4.9912815688      -19.3047593842
 C        -1.4032755431        3.6963502017      -18.2069198916
 C        -2.5261946029        2.7657647386      -17.7878136019
 C        -2.9942901026        1.9411700469      -19.0972342146
 O        -2.1960340716        1.8606778556      -19.9997762844
 C        -4.4704361716        1.4296820619      -19.0912995147
 C        -5.4408420249        2.6130838058      -19.3790989366
 O        -5.6729426249        3.3516382286      -18.4182063655
 C        -5.9838010625        2.9620272376      -20.7379317061
 C        -6.7690654558        4.2941409368      -20.8492474048
 C        -7.7048900129        4.6430096209      -19.7505973965
 O        -7.3647275878        5.3620301301      -18.7934303626
 C        -9.1683010497        4.1505717438      -19.8283794106
 C        -9.4633289335        2.5859099990      -20.3160560720
 O        -8.9236671810        2.0100228908      -21.2404996342
 C       -10.5165196601        1.6785673919      -19.4333987384
 C        -9.8907828864        0.5305809501      -18.5873966136
 C       -11.0903655763       -0.1740965689      -17.7780833191
 O       -11.6110085450       -1.1255479413      -18.2472643522
 C       -11.7125022868        0.2831955519      -16.3265851676
 C       -10.8475150503       -0.4447472680      -15.2541487288
 O       -10.1563126685        0.1753096119      -14.4954480269
 C       -10.7628333286       -1.9982400398      -15.2459827533
 C       -11.6700816066        1.8673287885      -16.1896357479
 C       -13.2283371721       -0.2580233974      -16.2001053332
 C        -9.7068662276        4.3620193773      -18.3954803891
 C        -9.8371765960        4.9643432374      -21.0052326058
 C        -4.6238928719        0.4370336144      -20.2976897108
 C        -4.7955295025        0.7288193418      -17.7456763914
 C        -1.4715396190        5.5009650280      -21.5450049231
 C         0.4934897215        5.2948251764      -19.9644337750
 C        -5.5563119255        9.1804323284      -16.4922443507
 C        -3.3074386497       10.1025836391      -16.0705800514
 C        -1.3727279222        4.6096598398      -11.0818275583
 C        -0.2717249181        4.4839231310      -13.3490046983
 C        -5.2877316041       -1.3781136412      -13.1931013627
 C        -6.4583874166       -1.2884710816      -10.8319698262
 C        -0.4809110849       -5.2658963530       -7.8491064465
 C        -2.8191599556       -5.7232840284       -6.9718516859
 C        -2.7763943260       -7.4760844632       -3.6898769914
 C        -2.9614314615       -6.7194211070       -1.2629552847
 C         3.5119700134      -10.4630691935       -1.8424022773
 C         1.8686977992      -12.1459409021       -2.5790337122
 C        -1.8796275684      -13.2726368382        2.9014427146
 C        -2.9488744511      -11.1419572618        3.8040658447
 C         2.8040878767       -7.2608460677        3.0448933653
 C         2.1718148784       -6.9693456436        5.5308644128
 H        -0.2140663339       -4.8541214389        4.9971392479
 H         0.2136182374       -4.5736314830        3.3589562384
 H         1.4785545098       -4.8057142014        4.6390854073
 H         0.9452369024       -9.4281076215        6.4302720246
 H         1.5431763925      -10.6290991835        5.3647358755
 H        -1.3268118945       -9.7428452461        4.9976037136
 H        -0.9004352468      -10.9178511974        6.1220636962
 H        -0.3105295756      -12.7460925751        0.7271559162
 H         0.8306531568      -11.5594660129        1.4180113497
 H        -0.7679471914      -10.1590225916       -0.6081446113
 H        -0.3123012820      -11.6902881659       -1.1868080694
 H         2.4866115432       -7.6729036455       -3.1475391594
 H         1.7847969358       -7.9576557102       -1.6086407018
 H        -0.0430202921       -7.6347235820       -4.1076368037
 H         0.5268104303       -6.3594454268       -3.3386810937
 H        -3.1996967041       -3.6590985281       -3.1104708155
 H        -3.5403046103       -4.9221940931       -4.1686935154
 H        -1.2260866266       -2.8537944665       -4.4182730956
 H        -2.6037594079       -2.9083949108       -5.3046558741
 H        -4.0589639036       -4.0047967267       -8.8175219337
 H        -2.5867384595       -4.2822498106       -9.6744129697
 H        -2.3664167271       -1.7557954581      -10.1172498997
 H        -3.7496722704       -1.5487336506       -8.9613150270
 H        -3.4748726303        0.7037188319      -13.1410544076
 H        -2.5373950166        0.2264521404      -11.6277062456
 H        -2.6254178065        2.4704256300      -10.7366636254
 H        -4.1444316610        2.9666358767      -11.4841867053
 H        -3.2799793069        5.2562012720      -15.1465100100
 H        -1.5819517336        5.4683271552      -15.0386101134
 H        -2.0391258375        7.8193856772      -14.8277317307
 H        -3.6268827120        7.7513123617      -14.2306884586
 H        -2.0728885622        9.5427090971      -18.3541151017
 H        -3.0935546520       10.1414878889      -19.6943720887
 H        -1.8919449125        8.6880317667      -20.9467370296
 H        -3.2413897117        7.6480535430      -20.3791964064
 H        -0.9211713455        4.2260180682      -17.2778808073
 H        -0.5676775040        3.1127522255      -18.6871829226
 H        -3.3920241307        3.3077805372      -17.3184011293
 H        -2.1349902009        2.0535863929      -17.1175142935
 H        -6.5289371197        2.1440056668      -21.2298455112
 H        -5.0679578454        3.1105455610      -21.4195090704
 H        -7.4776251990        4.1251187134      -21.6890714760
 H        -6.1593146508        5.1086637971      -21.0446955585
 H       -11.0691143365        1.0994525965      -20.1973062483
 H       -11.2394104104        2.2900112217      -18.9007957246
 H        -9.0804633980        0.9904740927      -17.9062199559
 H        -9.4301677336       -0.1998971145      -19.2023193317
 H       -11.1693981820       -2.3659583867      -14.3347815220
 H        -9.6795714745       -2.2344357906      -15.3574152932
 H       -11.2849983871       -2.5417068715      -15.9961934085
 H       -12.4793134833        2.1554023840      -15.5627456753
 H       -11.6399210709        2.3398070025      -17.1653518878
 H       -10.7605361229        2.1268760519      -15.6956763074
 H       -13.9484645076        0.5761560361      -16.2530471510
 H       -13.3334025157       -0.7274958017      -15.2701519839
 H       -13.4185525603       -0.9403612304      -16.9563312543
 H        -9.1661175677        3.7666883569      -17.5359238955
 H       -10.7705086631        4.0921560269      -18.1396255013
 H        -9.4530904767        5.3750659321      -18.1228103325
 H        -9.2509329910        4.7090001703      -21.8885966211
 H        -9.8411466954        5.9854550995      -20.7659202843
 H       -10.8380140808        4.6985181468      -20.9651467726
 H        -5.6663063007        0.2137831299      -20.3763935262
 H        -4.0770064301       -0.4801218853      -20.1271542747
 H        -4.2479041778        0.8780572409      -21.2086557474
 H        -3.9166935446        0.1744596158      -17.3003603780
 H        -5.6396182912       -0.0095584041      -17.9414874324
 H        -5.0234657075        1.4686847017      -17.0195343612
 H        -0.9360287220        6.1321011468      -22.2908722587
 H        -2.4874856345        5.8800136036      -21.5042124644
 H        -1.5629484167        4.3905695052      -21.8973063297
 H         1.0412832267        5.4369863144      -20.8300981026
 H         0.5366959638        4.2415448369      -19.8148364344
 H         0.9257822100        5.7586421971      -19.0657134519
 H        -6.2699505726        9.0416532037      -17.3045305586
 H        -5.8009496813       10.2039107083      -16.2701797110
 H        -5.9180854259        8.4062063773      -15.7573492951
 H        -2.3006839052       10.1319304792      -16.2089138249
 H        -3.5374956284       10.0767458966      -14.9931688412
 H        -3.7235696310       10.9624611583      -16.5027111379
 H        -0.7741754701        3.7847116644      -10.6470636943
 H        -2.3091053248        4.7969452369      -10.5653183907
 H        -0.6519708424        5.4210949250      -10.9897463393
 H        -0.3251503131        4.3173409325      -14.3875231564
 H         0.3958203706        3.7592196673      -12.9278665897
 H         0.2222160229        5.4201613651      -13.0649975238
 H        -4.2569980723       -1.4985999276      -13.5418852994
 H        -5.8782377955       -0.5900875624      -13.8371840035
 H        -5.6576554977       -2.4104107563      -13.2259055120
 H        -7.0326936620       -0.3926677507      -10.7155053092
 H        -6.1490276329       -1.4339869818       -9.7233681693
 H        -7.0509239019       -2.1899418780      -11.0710033641
 H        -0.1393222173       -6.2464685622       -7.5455927269
 H         0.2171543035       -4.4456307845       -7.8926933462
 H        -0.6897850461       -5.4612825110       -8.8827099497
 H        -2.3622746017       -6.5807721488       -6.4929965542
 H        -3.3351342468       -6.0636241751       -7.8979547463
 H        -3.7022049557       -5.3648274130       -6.3473070291
 H        -2.8025184394       -8.5965160548       -3.4926153756
 H        -2.1924122535       -7.2746926103       -4.6081680995
 H        -3.7946546637       -7.1897560249       -3.7515354997
 H        -3.9967396583       -6.5910609065       -1.5930660426
 H        -2.6221581141       -5.9500635954       -0.5307716667
 H        -2.9929061890       -7.7851889498       -0.7641958880
 H         3.5797187781       -9.4603825639       -1.5439176544
 H         3.9636176698      -10.5985789880       -2.8048997107
 H         3.9990101242      -11.1784942324       -1.1053115703
 H         2.7345240785      -12.4502724865       -3.1411421480
 H         0.9570755463      -12.0848902319       -3.1718440828
 H         1.7353120795      -12.8130020281       -1.7941225653
 H        -2.3602721148      -13.8508898314        3.6771593286
 H        -0.8818039117      -13.7473611000        2.6313798643
 H        -2.5142345063      -13.3596655827        1.9607278965
 H        -3.8979490403      -11.5597443464        3.4493211095
 H        -3.0369753136      -10.0836970023        3.4871507216
 H        -2.9710642122      -11.1682073757        4.8867881350
 H         3.0479143963       -6.2049055960        2.8631816251
 H         2.4370566271       -7.7161211954        2.0903602109
 H         3.7508811938       -7.6770049506        3.3300073013
 H         2.7927957866       -7.6826086220        6.0347556486
 H         1.4506594814       -6.8238656902        6.3667648792
 H         2.9060872348       -6.1293552673        5.3791921805
 Na        0.1117387460       -8.4448702083        1.1451934475
 Na       -5.3630889971        5.7188177374      -18.2984779889
