232

 C         0.1986535862       -5.1987806086        4.0380649389
 C         0.5637894589       -6.5068136783        3.4449828578
 O        -0.1056360696       -6.9557831373        2.5793389018
 C         1.8257416253       -7.3972216895        3.9975631813
 C         1.2485607532       -8.8289033678        3.9492435634
 O         1.1125138432       -9.4650420514        2.9413000458
 C         0.9106121849       -9.5607665280        5.2090880885
 C        -0.4670263551      -10.2406169618        5.1885139731
 C        -0.4049292032      -11.4211823034        4.1020159353
 O         0.5570942265      -12.1593257431        4.0465672037
 C        -1.7273584047      -11.7671567108        3.2683102516
 C        -1.4265450163      -11.1832449792        1.8026171172
 O        -2.1679081045      -10.2822810399        1.3465067713
 C        -0.2269442391      -11.6268223275        1.0117445978
 C        -0.0644200060      -11.0668730220       -0.4744702812
 C         1.3670563451      -10.5106581307       -0.7146608875
 O         1.7525854290       -9.6396096106        0.0218830638
 C         2.1109045171      -10.7762028880       -2.0659925345
 C         1.4342568370       -9.7412426977       -3.0992844510
 O         0.6556492311      -10.1125631086       -3.9307952862
 C         1.7193635706       -8.2420414092       -2.8342989719
 C         0.5633895720       -7.2603860870       -3.0108866932
 C        -0.7366930093       -7.4376464516       -2.1032496486
 O        -0.5845739916       -8.0091535626       -1.0339381761
 C        -2.1151148763       -6.8470079386       -2.5419506722
 C        -1.9070961150       -5.2953573846       -2.7498871011
 O        -0.8609320694       -4.8220911294       -2.3033216981
 C        -2.8517893654       -4.4758865027       -3.6197539096
 C        -2.1415726248       -3.5941771446       -4.6752512843
 C        -1.3759743937       -4.5724904869       -5.6585030429
 O        -0.6408236220       -5.3791570815       -5.1320095998
 C        -1.5768943593       -4.5488403084       -7.2555779336
 C        -1.8580171257       -3.2646663745       -7.9203513139
 O        -1.2363052870       -2.2140165596       -7.6026240466
 C        -3.0139805413       -3.2049320394       -8.9722746066
 C        -3.3996956345       -1.8301457651       -9.6706861650
 C        -4.0899922350       -2.1553840351      -10.9875211290
 O        -4.0003704280       -3.2469570469      -11.4743732545
 C        -5.1473721929       -1.0801297307      -11.5141463720
 C        -4.6393863420        0.3085322015      -11.0286757580
 O        -5.1465222626        0.9887235364      -10.1910717056
 C        -3.4761781773        0.9599187056      -11.8662196673
 C        -3.2973075274        2.4679392763      -11.5888840229
 C        -2.6021725442        3.1833346781      -12.7154648091
 O        -2.7414746383        2.8495008370      -13.8741048221
 C        -1.6232204331        4.4123608610      -12.4568822130
 C        -2.4872672663        5.6724234013      -12.8658858355
 O        -3.3579019901        6.0674214073      -12.0924655313
 C        -2.5051565827        6.1521109602      -14.3861472853
 C        -2.7417831366        7.6207205557      -14.7766229350
 C        -3.6572091748        7.5768921445      -15.9853659739
 O        -4.1068014298        6.5451283096      -16.3994660412
 C        -4.0962047604        8.9529172458      -16.7615117050
 C        -3.9073906030        8.6516482857      -18.2931472306
 O        -4.7888855041        8.0126515261      -18.8951565946
 C        -2.7644218592        9.1427039284      -19.2364716633
 C        -2.1427674995        8.0558867594      -20.1697208952
 C        -1.3069019446        7.0097377864      -19.4846297955
 O        -0.9499168131        7.1774052436      -18.3470228421
 C        -1.0286176445        5.6167202106      -20.1062304950
 C        -2.0668979683        4.7452334093      -19.3617509685
 O        -3.2654628086        4.8671148892      -19.6755075731
 C        -1.5797379012        3.9139876720      -18.1375926983
 C        -2.7131153082        2.9706274020      -17.6610202071
 C        -3.0898822371        2.0674216729      -18.8910284280
 O        -2.3332873957        1.7541432183      -19.8075931518
 C        -4.4473180415        1.4158875620      -19.0282237324
 C        -5.3730037340        2.6046122295      -19.2196845622
 O        -5.6179533270        3.2663914363      -18.2375437852
 C        -5.8662522625        2.8071140442      -20.5870330248
 C        -6.6943299191        4.0634009068      -20.8451696728
 C        -7.8563992420        4.5190294434      -19.8207084493
 O        -7.5783644365        5.2975577032      -18.9785444017
 C        -9.4121121406        4.1001783185      -19.8485155494
 C        -9.5924877647        2.5371154641      -20.2760573825
 O        -8.8422893444        2.0526273932      -21.0439505253
 C       -10.7454723750        1.7628176132      -19.6402110542
 C       -10.1943980953        0.6993719786      -18.5885980427
 C       -11.3550295146       -0.1470076739      -17.9103061582
 O       -11.9013623249       -1.1141098462      -18.4522662873
 C       -11.6892218923        0.1844538868      -16.3696887392
 C       -10.8056699709       -0.7215944373      -15.4447919726
 O       -10.1313042116       -0.1361974652      -14.5813025224
 C       -11.0574963747       -2.1870682260      -15.5426916899
 C       -11.4153062275        1.6402239269      -15.9988406046
 C       -13.1476389352       -0.1539753536      -16.1409313272
 C       -10.2487143283        4.4818991476      -18.5826211502
 C       -10.0196596485        4.8831908548      -21.0163621133
 C        -4.4807117376        0.3117214318      -20.0508252747
 C        -4.8417947701        0.6793711101      -17.7423374351
 C        -1.3128233654        5.6212943900      -21.6845021809
 C         0.5960351106        5.4739575772      -19.9238437115
 C        -5.5719220520        9.0004150901      -16.3250698945
 C        -3.1980437433       10.1394812894      -16.2866146246
 C        -1.2064028935        4.6435855444      -11.0070272280
 C        -0.4055782434        4.0833338538      -13.3462180433
 C        -5.4131683334       -1.0809405454      -13.0297290857
 C        -6.4822809944       -1.3133536985      -10.7602231884
 C        -0.3138267590       -5.1576780955       -7.9424648962
 C        -2.7135303197       -5.5858454404       -7.4789941611
 C        -2.7633373999       -7.6491590059       -3.6920761226
 C        -3.1311821150       -6.8676767578       -1.3726616873
 C         3.6281624796      -10.5083123707       -1.9206734984
 C         1.7692449154      -12.2137416914       -2.5531234854
 C        -1.7917327690      -13.3625450265        3.3097481694
 C        -3.0642563165      -11.2556935032        3.8491359697
 C         3.1172711553       -7.4426329755        3.0548097392
 C         2.2894626191       -6.9770805477        5.4497084473
 H        -0.3713532693       -5.1561777175        4.9863041627
 H        -0.3786437291       -4.6125672889        3.2726481514
 H         1.0783272923       -4.6846477593        4.3298507358
 H         0.9289192477       -8.9192542452        6.1357084246
 H         1.6114331898      -10.3932183923        5.4700649689
 H        -1.4165208896       -9.5949643970        5.0279641942
 H        -0.5545200687      -10.7296350889        6.2055004024
 H        -0.2269142697      -12.6466647599        0.9258506331
 H         0.6002792691      -11.4562536627        1.6328492664
 H        -0.7691997704      -10.1760853848       -0.6094988718
 H        -0.2836799267      -11.9136361681       -1.2072260703
 H         2.5404655094       -7.9037937505       -3.4927585769
 H         2.2144547660       -8.0458927067       -1.8465515445
 H         0.2870915047       -7.0912586543       -4.0369731529
 H         1.0329817353       -6.2686687578       -2.8736379783
 H        -3.4033958951       -3.8411857643       -2.8261649283
 H        -3.6500716080       -5.0886989418       -4.1165484485
 H        -1.4135028390       -2.9414131417       -4.1568888637
 H        -2.7435889975       -2.8583651584       -5.2993061327
 H        -3.8225303784       -3.7497004973       -8.5628861383
 H        -2.7738899114       -3.8578678264       -9.7900394664
 H        -2.4411560824       -1.4493886203       -9.8451668185
 H        -4.0051844648       -1.1787704844       -9.0533225241
 H        -3.7018316007        0.7808136708      -12.8470827846
 H        -2.5852164334        0.3782837974      -11.6633078889
 H        -2.6763501081        2.6729192484      -10.6767049730
 H        -4.2573286059        2.9091136264      -11.4499151308
 H        -3.4195767634        5.5640732788      -14.8313590404
 H        -1.6453574171        5.6674766272      -14.7962090773
 H        -1.8306700062        8.1931142323      -15.0691644686
 H        -3.1398167257        8.1159533645      -13.8436402687
 H        -1.9479179211        9.7219497381      -18.7666728828
 H        -3.3418958601        9.7998610934      -19.8410866502
 H        -1.5924356296        8.5521555574      -20.8927095868
 H        -2.9675089030        7.5329859260      -20.6615888473
 H        -1.2878201128        4.5288485416      -17.3232302587
 H        -0.7117053247        3.3756571822      -18.4966536044
 H        -3.6693476233        3.4557409860      -17.4811300934
 H        -2.3769737202        2.3123491187      -16.7993248055
 H        -6.4461660081        1.8594969722      -20.7556372019
 H        -5.1265591163        2.6980051878      -21.3305518444
 H        -7.1090629271        4.1345657862      -21.8413559794
 H        -5.9412032218        4.9268460403      -20.7167305739
 H       -11.2162295839        1.0897725660      -20.3744341469
 H       -11.5158386657        2.4082810554      -19.2261036066
 H        -9.6348572734        1.1676688263      -17.8655436500
 H        -9.5031311287       -0.0073309222      -19.1549131613
 H       -11.9676221384       -2.3780457790      -14.9778865116
 H       -10.1511478024       -2.7755376799      -15.2863217867
 H       -11.3066990920       -2.5782662195      -16.5281977067
 H       -11.1423546364        1.7224572422      -14.9291201575
 H       -12.3245534798        2.2097624039      -16.2587607896
 H       -10.5568184072        2.0454126622      -16.5316898834
 H       -13.7431761628        0.4840018739      -16.7074451678
 H       -13.3778218161        0.0227849287      -15.0646107258
 H       -13.2887047770       -1.2484306445      -16.4153393053
 H       -10.0794133047        3.8864351624      -17.7987146754
 H       -11.2782407352        4.3363046093      -18.7441624198
 H        -9.9628460842        5.4707863304      -18.2353013323
 H        -9.4871856434        4.5190842073      -21.8543380939
 H        -9.7654068728        5.9500187097      -20.8055681672
 H       -11.1294329172        4.8278183430      -20.9413093107
 H        -5.4871814573       -0.1989259247      -19.9733911067
 H        -3.6781863609       -0.4108053519      -19.7995064127
 H        -4.3144899832        0.7161642439      -21.0845826210
 H        -4.1114385672       -0.0415170598      -17.4657647290
 H        -5.7411479023        0.1709107915      -17.8737432893
 H        -4.9047631948        1.4436742663      -16.9181129015
 H        -0.7998034071        6.3795987010      -22.0954471144
 H        -2.3148799774        5.7245806067      -21.9816606728
 H        -0.9710466658        4.6974696655      -22.1108198295
 H         1.0561139744        6.2202983905      -20.6047169048
 H         1.1594667122        4.5577016647      -20.1022458655
 H         0.7543975437        5.8027844181      -18.9143731785
 H        -6.1278672358        8.1249405657      -16.7027325504
 H        -6.0338539384        9.6927208861      -17.0137366845
 H        -5.8563833375        9.0105031580      -15.3248863416
 H        -2.0939089045        9.9642342824      -16.5188552032
 H        -3.2290980604       10.3321786463      -15.2082465615
 H        -3.5040185981       10.9871432721      -16.9750908233
 H        -0.5999386559        3.8024024481      -10.6973018606
 H        -2.0231147353        4.8357931387      -10.3133166684
 H        -0.5821648007        5.5698288062      -10.9716792923
 H        -0.7005100723        3.5762299757      -14.3025813278
 H         0.3281481598        3.4973591913      -12.7718599896
 H         0.1010638346        5.0176115919      -13.5785446117
 H        -4.4497323790       -1.1537120562      -13.5323110756
 H        -5.7420557537       -0.1265435465      -13.2630214334
 H        -6.0975364556       -1.9004624820      -13.3116653671
 H        -7.2752848304       -0.5663014109      -10.9343242688
 H        -6.3349944019       -1.2279729352       -9.7325129265
 H        -6.8465928583       -2.3111530840      -10.9546906634
 H         0.0800880326       -5.9131765010       -7.2930323234
 H         0.3861486937       -4.3880682976       -8.2022838279
 H        -0.4693024795       -5.7010063667       -8.8650299650
 H        -2.4725186562       -6.5589134581       -7.0376761171
 H        -2.7904980191       -5.8136007086       -8.5432851075
 H        -3.6547341367       -5.3018082132       -7.0427911238
 H        -2.9980466841       -8.5978120797       -3.3214172611
 H        -2.0605041132       -7.7586712647       -4.4695532941
 H        -3.7451738440       -7.2389165483       -4.0151565337
 H        -4.0923340594       -6.3347816060       -1.5041827763
 H        -2.6416791530       -6.4697807552       -0.4926698565
 H        -3.4487765372       -7.8370889788       -1.2654475864
 H         3.8150563417       -9.6321518822       -1.2518482774
 H         4.0914970272      -10.3906282692       -2.8975582160
 H         3.8980364160      -11.4535235574       -1.5198084477
 H         2.6421051638      -12.4316693845       -3.1882452163
 H         0.8060493024      -12.3001590577       -2.9905490927
 H         1.9359815314      -12.9521011258       -1.7268515969
 H        -2.2783013589      -13.5191153678        4.2733151955
 H        -0.8822065901      -13.8653109432        3.3433615876
 H        -2.3872747032      -13.8079709703        2.5928526480
 H        -3.8577459065      -11.6115537536        3.2284125493
 H        -3.2116918512      -10.2017840973        3.9847953952
 H        -3.2755081751      -11.6730502056        4.8317736186
 H         3.3605887477       -6.5464104597        2.5272639436
 H         3.0982836830       -8.2431635412        2.3783727896
 H         3.9040800078       -7.6720601750        3.7782868582
 H         2.8515363884       -7.7482126665        6.0190896379
 H         1.4196838586       -7.0117253332        6.0892352088
 H         2.8003613229       -6.0665225958        5.5989687524
 Na       -0.0487158468       -8.5541166524        1.0129732534
 Na       -5.2731596822        5.6272015565      -18.2155498865
