232

 C         0.2726908394       -5.2808739268        3.9928415154
 C         0.7327150991       -6.4832910050        3.2093799470
 O         0.4117141178       -6.6640596981        1.9849263439
 C         1.9238130611       -7.3256330634        3.8912189809
 C         1.3144877637       -8.7835575357        3.9306620335
 O         1.0353361583       -9.3758179271        2.8641163890
 C         0.8732143785       -9.4287486514        5.2848373195
 C        -0.5065492820      -10.0822361956        5.0835037410
 C        -0.4137475638      -11.2564709298        4.1013326274
 O         0.6587072942      -11.6748125355        3.8217014486
 C        -1.6903106180      -11.8919793368        3.2608173487
 C        -1.3017866582      -11.2237865127        1.9223772344
 O        -1.7894061642      -10.2434834361        1.4624927230
 C        -0.1677838547      -11.8796141009        1.1559639067
 C         0.0369810001      -11.4845709470       -0.3007944590
 C         1.3147449817      -10.7668782395       -0.6367224669
 O         1.7752653058       -9.9064700054        0.1412781389
 C         1.9696289469      -10.8812170033       -2.0508797184
 C         1.2069956047       -9.8134624992       -2.9653882119
 O         0.3493754111      -10.1587752146       -3.7755862474
 C         1.6560180792       -8.3664410141       -2.8825242586
 C         0.4809857194       -7.3751022335       -3.1300846896
 C        -0.6247262162       -7.4786215578       -2.1444926697
 O        -0.4937216086       -8.0719653243       -1.0876995078
 C        -2.0460787104       -6.8141636501       -2.6021838670
 C        -1.8836208901       -5.1851923580       -2.7583239503
 O        -1.0176254644       -4.6563518920       -2.1482608299
 C        -2.9157120257       -4.5028511401       -3.6770035415
 C        -2.4161773286       -3.8452486182       -4.9788557873
 C        -1.4813374354       -4.7156271841       -5.8333332452
 O        -0.7491402885       -5.4974733655       -5.2887437244
 C        -1.5054366610       -4.5308562500       -7.3313019646
 C        -1.8255329773       -3.0535916745       -7.9138801632
 O        -1.1172667968       -2.1752145011       -7.5366088698
 C        -3.0197923838       -2.9793271930       -8.8383605875
 C        -3.2992009342       -1.6147696723       -9.5247129701
 C        -4.0765397990       -1.8748756886      -10.9115866592
 O        -3.7161145568       -2.8247318891      -11.6216293221
 C        -5.1893255648       -0.9428037617      -11.3205683720
 C        -4.7055436936        0.4631863640      -10.8611937590
 O        -5.1979853959        1.0431540724       -9.9259539689
 C        -3.6276596247        1.1328991964      -11.7348299276
 C        -3.2510789163        2.5444382098      -11.3818230228
 C        -2.6241494250        3.2251161354      -12.6440631494
 O        -2.9636363155        2.9046435555      -13.7732047466
 C        -1.6175225480        4.4180650157      -12.4006581048
 C        -2.3264102148        5.7818465311      -12.7542401920
 O        -2.8967335567        6.4398240719      -11.9256213914
 C        -2.0903566113        6.2534499260      -14.2301917452
 C        -2.8411408778        7.5952012974      -14.6164187299
 C        -3.5567081152        7.5227891931      -15.9238887112
 O        -3.9213265422        6.4288912377      -16.3427073176
 C        -3.9936095720        8.7979873116      -16.7351747510
 C        -3.8747715713        8.4114575860      -18.2502132480
 O        -4.5947437811        7.6364733320      -18.8101223470
 C        -2.7847179573        9.0849950274      -19.0873010644
 C        -2.2365998759        8.1197667447      -20.1706267655
 C        -1.3859058697        7.1170066055      -19.4673562895
 O        -1.0691612550        7.3356461965      -18.3360825566
 C        -1.0418627091        5.6934231724      -20.1554433533
 C        -2.2021432316        4.8625443114      -19.4921720230
 O        -3.2907563627        4.8493513372      -19.9881608797
 C        -1.7511128409        4.1487882747      -18.1130087939
 C        -2.6692164596        3.0699984192      -17.6108807810
 C        -2.9315674500        1.9656855811      -18.7271331278
 O        -2.1846728755        1.7207163729      -19.5986353693
 C        -4.4996766679        1.2124703257      -18.7700156994
 C        -5.4445871303        2.3970378242      -19.0325016289
 O        -5.6331009963        3.2827807668      -18.1602170385
 C        -6.2528722837        2.5706710362      -20.4003563283
 C        -7.0026253058        3.9733192826      -20.7882150354
 C        -8.1348416509        4.5404840114      -19.8111176695
 O        -7.8069940101        5.2637554559      -18.8216690639
 C        -9.5673796411        4.1165288935      -19.9917392766
 C        -9.6790008596        2.5722480449      -20.2313061722
 O        -8.7963908322        1.9172764087      -20.7781706311
 C       -10.8403856088        1.7751685119      -19.7595388431
 C       -10.3740331330        0.7611630658      -18.7163385619
 C       -11.5169738155       -0.0208657335      -17.9356585899
 O       -12.1201086026       -0.8427607669      -18.5880656212
 C       -11.7315859491        0.1766638579      -16.3804017351
 C       -10.8354510175       -1.0125977790      -15.5970565737
 O        -9.9142754764       -0.6955084115      -14.9100414182
 C       -11.2398385219       -2.4764270625      -15.8039386834
 C       -11.3811973348        1.6552542599      -15.8639306789
 C       -13.2514343523       -0.0316525377      -16.1765342238
 C       -10.3360785807        4.5844431602      -18.7409165192
 C       -10.1219022248        4.7861144703      -21.2708306286
 C        -4.4537815092        0.1779087542      -19.9351218575
 C        -4.8319778765        0.6382889809      -17.3771337646
 C        -1.2344114081        5.8474334335      -21.7118845656
 C         0.3309470992        5.1635312500      -19.7928253117
 C        -5.4584856479        9.2149552953      -16.4863119733
 C        -3.1359053383       10.1121306200      -16.4969606289
 C        -1.1037566887        4.5053847547      -10.8828273244
 C        -0.4033618828        4.2016247552      -13.2426928890
 C        -5.3664879898       -1.1971250917      -12.8049406131
 C        -6.5795870730       -1.3893786556      -10.5758069353
 C        -0.1513894463       -4.9058757549       -7.8725720317
 C        -2.5427351602       -5.6027749851       -7.7591755753
 C        -2.4579411507       -7.6756263709       -3.9020277186
 C        -3.0112375612       -7.0723397495       -1.4359779833
 C         3.4562614374      -10.5646508113       -1.9067072291
 C         1.7321701987      -12.2583626949       -2.6860910563
 C        -1.7034947671      -13.4363137963        3.2380867336
 C        -2.9966072389      -11.1675193451        3.7257519990
 C         3.0712907960       -7.1788103909        2.9307726802
 C         2.3270055727       -6.7871917391        5.2716280055
 H         0.2845453234       -5.4436614000        5.0268052822
 H        -0.6874254343       -4.9504662320        3.6556980169
 H         0.9698204281       -4.4207032949        3.9426835837
 H         0.8893476079       -8.7546653159        6.1089885815
 H         1.5302512812      -10.2580755906        5.4820782902
 H        -1.1285217735       -9.4173434141        4.5737013312
 H        -0.9910047601      -10.4326639700        5.9574583906
 H        -0.0728603232      -13.0403491279        1.2210732861
 H         0.7334654500      -11.5806184392        1.7694812235
 H        -0.6988252841      -10.7072735463       -0.4149236553
 H        -0.1255227048      -12.2950028243       -0.9725567470
 H         2.5191759261       -8.2257983465       -3.5158998713
 H         2.1085304461       -8.1934455649       -1.9376286347
 H         0.0964997013       -7.4091216895       -4.1702654548
 H         0.6932506243       -6.2995679506       -3.1307845847
 H        -3.5242697125       -3.8899011718       -3.0818365619
 H        -3.5769792583       -5.2395364381       -4.1029506836
 H        -1.8956798519       -2.8956085871       -4.6963128194
 H        -3.2111236274       -3.5114825683       -5.6270851296
 H        -3.8866611767       -3.4760685714       -8.3374122595
 H        -2.8936428962       -3.7486628390       -9.6157359548
 H        -2.2220456870       -1.2632509616       -9.7028634905
 H        -3.8529440597       -0.9976160426       -8.7959175348
 H        -4.1012763320        1.0402943982      -12.7953221334
 H        -2.7369239266        0.5177450885      -11.7124766356
 H        -2.6253259111        2.6422052810      -10.5185732137
 H        -4.2274750091        3.1235886863      -11.1727976083
 H        -2.3976929977        5.3747169414      -14.7193769885
 H        -0.9600297994        6.2719680704      -14.3992723879
 H        -2.1414583189        8.4166453817      -14.4689642236
 H        -3.5305380164        7.6644815849      -13.7613003809
 H        -1.9167815866        9.3846487895      -18.4911092409
 H        -3.2915498549       10.0268057284      -19.5190079617
 H        -1.7032625045        8.7576046997      -20.9738618881
 H        -3.0556415974        7.5555393784      -20.6513941142
 H        -1.8637334951        4.9031366310      -17.2951853321
 H        -0.7242907640        3.7324154138      -18.2208411700
 H        -3.6690743486        3.4306623457      -17.3489654444
 H        -2.2145273889        2.5085328160      -16.8366775902
 H        -6.8753253342        1.7349846877      -20.6093874958
 H        -5.5324264769        2.3757047666      -21.2672450631
 H        -7.4954804893        3.8655893972      -21.7935727439
 H        -6.2494034670        4.7224037535      -20.9115822613
 H       -11.2935998167        1.2197789968      -20.5503093589
 H       -11.6011812183        2.4242522983      -19.2724969141
 H        -9.6034098185        1.3136873289      -18.0378174384
 H        -9.8788859184       -0.0114266604      -19.2146818498
 H       -12.3573686927       -2.5870325451      -15.8743907868
 H       -10.7059810806       -3.1030357274      -15.1802027068
 H       -10.9001219946       -2.8981359058      -16.7698430532
 H       -10.5688125112        1.5915710487      -15.1146350632
 H       -12.2866269551        2.0448945088      -15.4389806799
 H       -10.9587871113        2.3150956497      -16.6696644781
 H       -13.6893589965        0.4127817408      -17.1590678632
 H       -13.6327192026        0.6217305187      -15.3894594175
 H       -13.5320494304       -1.0546931836      -16.0275309648
 H       -10.1862980832        3.8716002746      -17.8457054760
 H       -11.4149977427        4.5682408769      -18.9477105889
 H       -10.0266205085        5.5975569153      -18.4203543281
 H        -9.4998626276        4.3286654917      -22.0837425605
 H       -10.0428661052        5.8572835363      -21.2369326384
 H       -11.1418217265        4.4507477257      -21.2546710193
 H        -5.3895341237       -0.2065187374      -20.2281437351
 H        -3.8422450459       -0.6395153251      -19.5923288702
 H        -4.0078774311        0.6955477458      -20.7473414183
 H        -4.3047149242       -0.3182802302      -17.3479257909
 H        -5.9225080960        0.3678805571      -17.2418463529
 H        -4.5989091863        1.2598368057      -16.5561684530
 H        -1.0580742394        7.0023245132      -22.0097726894
 H        -2.3437449009        5.6426925726      -22.0278357869
 H        -0.6041180015        5.2128187936      -22.3442742619
 H         1.0833923903        5.9796019930      -19.8418043488
 H         0.6880320878        4.4916416321      -20.6070837700
 H         0.4816807483        4.6170863087      -18.8546577467
 H        -6.0349008005        8.5270457386      -15.9468258910
 H        -6.0502889284        9.4356728494      -17.3630092082
 H        -5.4750193343       10.0240522343      -15.7045321676
 H        -2.0773310488        9.8987082489      -16.4704851496
 H        -3.3314447557       10.4894247951      -15.5038321506
 H        -3.3727416877       10.7885558171      -17.2585568004
 H        -0.8764416126        3.4977114329      -10.4588699248
 H        -1.8531855160        5.0082324394      -10.2364898237
 H        -0.3120676009        5.2280976058      -10.8325041735
 H        -0.7441829152        3.9611079794      -14.2421562352
 H         0.1102686379        3.3304156844      -12.8293445679
 H         0.2725472733        5.0667329968      -13.3167708945
 H        -4.4388841403       -0.9788597874      -13.3432088719
 H        -6.0492780203       -0.4248902712      -13.1380501000
 H        -5.7726004671       -2.1405276896      -12.9138128791
 H        -7.1866814659       -0.9937569990      -11.3510137342
 H        -6.9678245671       -0.8669767538       -9.6864072053
 H        -6.8363889042       -2.4295779729      -10.5298285925
 H         0.1949934147       -5.9209915530       -7.5247248611
 H         0.6011112236       -4.1073418138       -7.6364868086
 H        -0.1573621738       -4.9164704261       -9.0007142203
 H        -2.4332548385       -6.6179292676       -7.3648923555
 H        -2.5521258226       -5.8484130067       -8.8557805151
 H        -3.4829836777       -5.3129206510       -7.2054518869
 H        -2.5334521608       -8.7754096147       -3.6268622806
 H        -1.6353230168       -7.6117098250       -4.6790290456
 H        -3.3987372832       -7.4346223972       -4.3480318879
 H        -3.8308732176       -6.3899481508       -1.3885039422
 H        -2.5341260668       -6.7686501038       -0.4997927042
 H        -3.5138158103       -8.0736731176       -1.4563148542
 H         3.5634527998       -9.6412880191       -1.3679036083
 H         3.8382352316      -10.4209781244       -2.9399155631
 H         3.8760574647      -11.4546659997       -1.4379676687
 H         2.2135260096      -12.3240436284       -3.6340706798
 H         0.6372204916      -12.5641042046       -2.6369671973
 H         2.2983535550      -12.9122647867       -2.0509110197
 H        -1.6264789333      -13.8757457941        4.2119927305
 H        -0.8894723944      -13.8839932587        2.6197698684
 H        -2.6811643641      -13.7541821427        2.7744336750
 H        -3.8507909854      -11.2278230466        3.0245740939
 H        -2.8552814439      -10.1509655001        4.1042741658
 H        -3.3722561276      -11.6143957650        4.6421388427
 H         3.4143977924       -6.1239668486        2.8298140313
 H         2.5422673145       -7.3890666968        1.9539527801
 H         3.8672500177       -7.9300782552        3.0288842164
 H         3.0038341689       -7.5039505048        5.6522941138
 H         1.6081103412       -6.5975770860        6.0779793575
 H         2.8574617434       -5.7969431340        5.2416400230
 Na       -0.2448587320       -8.8720867632        1.0478743901
 Na       -5.1564735279        5.6209434591      -18.4468687742
