232

 C         0.2013907895       -5.0512945031        3.6864122826
 C         0.8394765440       -6.2348934325        2.9825719934
 O         0.4507212283       -6.4528825912        1.8126464745
 C         1.9868326305       -7.0769908849        3.7034521455
 C         1.2199760283       -8.4445482111        3.8325914895
 O         1.0269586089       -9.1883022339        2.8449261725
 C         0.7091114906       -8.9729450678        5.1456812636
 C        -0.4690067123      -10.0028793961        5.0755744600
 C        -0.2721125564      -11.3271980746        4.2602149242
 O         0.6494882025      -12.0807408325        4.3334126563
 C        -1.5438891169      -11.8247183837        3.3130762083
 C        -1.1150445110      -11.3967257200        1.8311585884
 O        -1.5005538783      -10.3216668559        1.3667731473
 C        -0.1302102277      -12.3196816868        1.1387313304
 C        -0.0010881562      -11.9933275607       -0.3917049217
 C         1.2244403340      -11.1148238408       -0.8026324893
 O         1.5649953785      -10.2572453167       -0.0157798336
 C         1.8668807806      -11.1170438078       -2.2114523578
 C         1.0784692706       -9.8834452489       -2.8548787684
 O        -0.0490874244      -10.0973353005       -3.3071246715
 C         1.6330490933       -8.4412863658       -2.8824130006
 C         0.5989725953       -7.3669398954       -3.2951991871
 C        -0.6341259640       -7.4835132160       -2.3948242538
 O        -0.4793988238       -7.9475689821       -1.2673244375
 C        -2.0016913884       -6.9468642910       -2.7374064143
 C        -1.9731522022       -5.3027648058       -3.0114246084
 O        -1.1654201458       -4.6810312310       -2.3917717016
 C        -3.1390889873       -4.6752159771       -3.8450449101
 C        -2.5790659585       -3.9522321069       -5.1526387323
 C        -1.4814858924       -4.8061408999       -5.9184540164
 O        -0.7179014210       -5.5112558079       -5.2637716599
 C        -1.4187763296       -4.6123227366       -7.4705201401
 C        -1.9270805894       -3.1407092100       -7.7645363353
 O        -1.3410541952       -2.1806284756       -7.4304844745
 C        -3.1628732202       -3.0141177278       -8.6372551294
 C        -3.3890490811       -1.5596345419       -9.2274484047
 C        -3.8425400093       -1.6212999420      -10.7726644392
 O        -3.2097620930       -2.2355720513      -11.5814270951
 C        -5.1119742933       -0.8913387291      -11.0125162834
 C        -4.7913532957        0.7017896067      -10.8372472049
 O        -5.2840998899        1.2280150987       -9.8412300146
 C        -4.0909700427        1.5218629113      -11.9257047811
 C        -3.3382702511        2.7641102626      -11.3713993621
 C        -2.6369009687        3.6111506974      -12.4711424996
 O        -2.9851337423        3.4243007506      -13.6373765894
 C        -1.4356275005        4.5130422862      -12.1847221739
 C        -2.0002159916        5.9849400568      -12.6795421196
 O        -2.2927643547        6.7519866193      -11.8108532491
 C        -2.0193809696        6.3042965909      -14.1386798324
 C        -3.2385702231        7.3091465564      -14.4794422888
 C        -3.6526885381        7.2584951922      -15.9759554454
 O        -3.8983257249        6.2356909867      -16.5968597698
 C        -3.8626896508        8.7054790837      -16.7083131324
 C        -3.7795471938        8.3870730634      -18.2773846819
 O        -4.4403036649        7.5779891867      -18.9024830938
 C        -2.8345233170        9.2845970414      -19.1000281048
 C        -2.1474813776        8.3686383053      -20.1455098614
 C        -1.3867248656        7.2119675639      -19.4271213623
 O        -0.9784034940        7.2481368881      -18.2873722605
 C        -1.1342050273        5.7638570063      -20.1998764300
 C        -2.2226519485        4.8994079952      -19.4062752612
 O        -3.3331543560        4.8337291950      -19.8749103011
 C        -1.8387696951        4.1869501420      -18.1452164569
 C        -2.8579250372        3.2233598857      -17.5904366602
 C        -2.9836436914        1.9821928191      -18.5461356317
 O        -2.1765068220        1.5456768633      -19.2780127621
 C        -4.4785605812        1.3113496033      -18.4905702962
 C        -5.5710469351        2.3145776736      -18.8483702526
 O        -5.9288624411        3.0826612119      -17.9407289572
 C        -6.2134647515        2.4832315625      -20.2590776809
 C        -7.0229304333        3.7816121030      -20.7615279284
 C        -8.0426014498        4.3561436413      -19.7679086501
 O        -7.7298592453        5.0810086367      -18.7841147379
 C        -9.4893909326        4.1078341469      -20.0520569710
 C        -9.7870680605        2.4789136150      -20.1716295046
 O        -9.3295082076        1.7639487403      -21.0822661815
 C       -10.9628916734        1.8864720391      -19.3842666233
 C       -10.4455862986        0.6375132170      -18.5857308882
 C       -11.7150878522        0.0011569509      -17.8880505039
 O       -12.4978029835       -0.5875115588      -18.5692873175
 C       -11.9287591975        0.0409157130      -16.3456305490
 C       -11.0267727020       -1.2874656688      -16.0098873971
 O        -9.9025788273       -1.2007918658      -15.6151916707
 C       -11.5411662765       -2.6739237283      -16.3831913118
 C       -11.3351683354        1.3730347935      -15.7480798626
 C       -13.4306637155        0.0150638894      -15.8972436552
 C       -10.3807878798        4.7814403221      -18.9571188410
 C        -9.7874375850        4.6761407278      -21.4994289005
 C        -4.5506646549        0.2718844799      -19.6244665958
 C        -4.6867468246        0.8059139520      -17.0870161569
 C        -1.4896772474        5.6819560409      -21.7078217191
 C         0.3507468538        5.2900993398      -19.9260589713
 C        -5.3364433530        8.9873343307      -16.4715473787
 C        -2.9224029959        9.8549666357      -16.2054392256
 C        -0.9420848574        4.7755272304      -10.7658204698
 C        -0.2498039502        3.9453860393      -13.0468326227
 C        -5.6164447303       -0.9704247455      -12.5598218731
 C        -6.2649933310       -1.3318682979      -10.1437902523
 C         0.0732634909       -4.6060340887       -7.8299875672
 C        -2.1985440104       -5.6766124759       -8.2323134886
 C        -2.4527432952       -7.6860758306       -3.9923897097
 C        -2.9317102138       -7.0898081032       -1.5064367646
 C         3.4914367930      -10.8947959675       -2.0047173198
 C         1.7905065805      -12.4391556599       -2.9972218446
 C        -1.5271835302      -13.4287773167        3.6164051908
 C        -2.8618984851      -11.1745454215        3.8444644950
 C         3.1667626697       -7.4810584711        2.8348213231
 C         2.5530422863       -6.4923435756        4.9712070151
 H        -0.4543716786       -5.2105783418        4.5637086358
 H        -0.2793502659       -4.4558323525        2.9430566713
 H         1.0054158053       -4.4184883112        4.1615569531
 H         0.4356179896       -8.1918080860        5.8656602379
 H         1.6752650560       -9.4997977008        5.4691072725
 H        -1.3471907094       -9.4331529424        4.7155753675
 H        -0.6737314538      -10.5018518796        6.1108777042
 H        -0.3173769207      -13.3505986721        1.2998238666
 H         0.7982328146      -12.1945491540        1.5470518443
 H        -0.8881994201      -11.2882728247       -0.7329570910
 H        -0.0371606284      -12.9573442689       -0.9265319815
 H         2.5855808331       -8.3320237004       -3.4687589518
 H         2.0030826532       -8.1639788983       -1.8881163283
 H         0.3302211800       -7.3862464180       -4.3788422049
 H         1.0015941066       -6.3421095818       -3.1416491273
 H        -3.5842487616       -3.7751642029       -3.3640748952
 H        -4.0042313554       -5.3037559160       -4.2558455484
 H        -2.3092820593       -2.9302329572       -4.8176696275
 H        -3.5448559889       -3.9328400223       -5.7478538204
 H        -3.9642801567       -3.5114457453       -8.1747611462
 H        -3.0349291885       -3.6479214535       -9.4902142738
 H        -2.4027289534       -1.0988418789       -9.3701385054
 H        -3.8962981701       -0.9495225285       -8.5042015035
 H        -4.9153881671        1.8358574937      -12.5146820724
 H        -3.4639542699        0.9492922573      -12.4659289342
 H        -2.4978530461        2.5895694798      -10.6739604819
 H        -4.0592067577        3.3930676049      -10.8012169547
 H        -2.1538456408        5.3322520657      -14.7210232658
 H        -1.0524299985        6.7448309716      -14.4589809403
 H        -2.9568084573        8.3384770383      -14.1033287696
 H        -4.1411138847        6.9130403689      -13.9562715436
 H        -2.1295868932        9.8753251967      -18.5213628510
 H        -3.4936526790        9.9438575824      -19.6503608353
 H        -1.3399342853        8.9415279459      -20.5940231414
 H        -2.8164256471        8.1056984762      -20.9254318118
 H        -1.7617593026        4.9921613555      -17.4396127075
 H        -0.9695078593        3.6419339791      -18.2902533750
 H        -3.9284232171        3.5045203016      -17.4679561043
 H        -2.5256786259        2.7132947323      -16.6966486083
 H        -6.9200735654        1.6382102333      -20.3950855870
 H        -5.5359274672        2.1699846158      -20.9876160490
 H        -7.4859172602        3.5201154342      -21.7621032168
 H        -6.3290145403        4.5975058942      -21.0488138556
 H       -11.7248563433        1.5658748582      -20.1398171045
 H       -11.4076268407        2.5262994679      -18.6530289981
 H        -9.6178177062        0.9830532465      -17.9275761343
 H       -10.0423285942       -0.0645358813      -19.2828989496
 H       -12.5343063870       -2.7790234812      -16.8812852785
 H       -11.4590715178       -3.3503006639      -15.5394214394
 H       -10.8183134894       -3.1923882835      -17.0510070807
 H       -10.4309816768        1.7455374364      -16.2187621953
 H       -11.0242042016        1.1492078097      -14.7019609973
 H       -12.0518909629        2.1825317093      -15.8116261490
 H       -13.6250933838        1.0725027313      -15.5227331637
 H       -13.5469060130       -0.6609456099      -15.0806757140
 H       -14.0935229684       -0.2152228474      -16.6868926193
 H       -10.1478422657        4.3283268256      -17.9940240756
 H       -11.3841317308        4.8016523455      -19.1770240799
 H       -10.1258422498        5.7697949945      -18.9034235103
 H        -9.1540567921        4.1439813597      -22.2621602446
 H        -9.4600360916        5.7074780137      -21.4241767181
 H       -10.7971794285        4.4203643598      -21.7596736812
 H        -5.5330127946       -0.2559041267      -19.6137041314
 H        -3.7840055431       -0.5102268129      -19.4335650758
 H        -4.4532033906        0.7367617854      -20.6358651682
 H        -3.7311469376        0.5286743442      -16.6177721157
 H        -5.3091169050       -0.0911315027      -17.0732853467
 H        -5.2566484547        1.4671161203      -16.5514054144
 H        -0.7192540251        6.0835342544      -22.3801407680
 H        -2.4390889199        6.1529439974      -21.9159225837
 H        -1.5671236487        4.7090543321      -21.9749076073
 H         0.8756563093        5.3136885652      -20.8407380723
 H         0.4484392963        4.2937074472      -19.5060719015
 H         0.9613830158        5.9828770916      -19.2956665635
 H        -6.0907064184        8.2976234776      -16.8535049133
 H        -5.5578314353        9.9908828324      -16.8508883555
 H        -5.5763219316        9.0999043227      -15.3776554763
 H        -1.8966527709        9.4631006354      -16.2032175082
 H        -3.2569966160       10.1484239227      -15.1364760756
 H        -3.0577131392       10.8544205479      -16.7205694779
 H        -0.3685550784        3.9549243271      -10.3757512795
 H        -1.7477512726        4.9325028460      -10.1005498489
 H        -0.4165372549        5.7267189112      -10.7619895608
 H        -0.4955134326        3.9333799537      -14.0854537119
 H        -0.0416666476        2.9124671335      -12.7989577973
 H         0.6448550151        4.6051690118      -12.9378699216
 H        -4.9172394276       -0.5387527522      -13.2667040772
 H        -6.6680449247       -0.5637572535      -12.6602293413
 H        -5.7012749697       -2.0043357185      -12.7196531424
 H        -7.1979545921       -0.8635349743      -10.2205238865
 H        -5.9343302110       -1.3333728797       -9.0699166430
 H        -6.3862485748       -2.3909744259      -10.3788264954
 H         0.4863974045       -5.5338547374       -7.4324798390
 H         0.6223405769       -3.8992378777       -7.2453960936
 H         0.2928701207       -4.4777124133       -8.8410039250
 H        -1.9407260906       -6.6839359801       -8.1747289815
 H        -1.9039682682       -5.4715756936       -9.2042102722
 H        -3.2467118238       -5.6350042711       -7.9969261186
 H        -1.9608815332       -8.6623412751       -4.1193499687
 H        -2.2009653362       -7.1265064008       -4.8868348333
 H        -3.4827870457       -7.8257989439       -4.0256955555
 H        -3.9424017078       -6.9604010044       -1.7745889179
 H        -2.8297411904       -6.3731598911       -0.7300762039
 H        -2.8466435035       -8.1324244084       -1.0913819297
 H         3.5921794409      -10.1339424350       -1.2603698607
 H         3.8589179952      -10.5522626634       -2.9517409466
 H         3.9268551914      -11.8523629310       -1.5969974399
 H         2.5293279161      -12.4141151070       -3.8218255793
 H         0.8190379028      -12.4351015163       -3.5706067193
 H         1.8121740435      -13.2997773116       -2.3517514898
 H        -2.0436790278      -13.6685672920        4.4711302383
 H        -0.4787987820      -13.5815278401        3.8496848658
 H        -1.8130576687      -14.1276709845        2.8533996574
 H        -3.7433191900      -11.7165203313        3.5583293939
 H        -2.9419799804      -10.1860897008        3.3791529792
 H        -2.9730410163      -10.9699611275        4.8823877999
 H         3.7159232366       -6.6355371848        2.5276418967
 H         2.8077507836       -7.9825073798        1.9380715579
 H         3.7390931865       -8.1771864812        3.3593794989
 H         3.3713504795       -7.0486419516        5.3142149632
 H         1.8319500268       -6.2526506108        5.7430165520
 H         2.8978252876       -5.4671933850        4.8102071802
 Na        0.2567758005       -8.4310872249        0.7793289964
 Na       -5.3399770327        5.4890599273      -18.4635162550
