232

 C         0.3868228425       -4.9591077279        3.6837016880
 C         0.9548761715       -6.1495671340        2.8444065491
 O         0.4371623794       -6.4466480359        1.7623960743
 C         1.8904164260       -7.1136561819        3.6286609546
 C         1.1528368667       -8.4931540404        3.8148341034
 O         0.9069138275       -9.1360234989        2.8210072862
 C         0.6990962343       -8.9451003039        5.2644660314
 C        -0.4403766352       -9.9327018988        5.1132960670
 C        -0.2510036780      -11.2315082546        4.3478352607
 O         0.6605701358      -11.9653314995        4.6216571204
 C        -1.3496027398      -11.7837002046        3.3799678861
 C        -0.9785212731      -11.4974660042        1.8461328102
 O        -1.3227937734      -10.4568032854        1.4403376786
 C        -0.1479456491      -12.4920407734        1.0700182189
 C         0.0439618414      -12.1206850337       -0.4007782521
 C         1.1795626749      -11.1856959158       -0.7958543564
 O         1.6037519071      -10.2949046858       -0.0233745075
 C         1.8229473795      -11.2062891735       -2.2377427404
 C         1.0730207239       -9.9729820168       -2.9211692275
 O        -0.1067121147      -10.0978565715       -3.1704026274
 C         1.7366195128       -8.5456713464       -3.0251669706
 C         0.6308488566       -7.3942083780       -3.2810509144
 C        -0.5829752316       -7.3603093686       -2.3240385054
 O        -0.5553280681       -7.8373456604       -1.2275381494
 C        -2.0830972155       -6.9618873739       -2.8461897453
 C        -1.9796362629       -5.4139861159       -3.1589659590
 O        -1.1749439281       -4.7125689681       -2.5418332896
 C        -3.1128205073       -4.7872210515       -3.9368839909
 C        -2.6315890638       -3.9736506739       -5.2280488827
 C        -1.5255640595       -4.7979710853       -5.9395102131
 O        -0.7100828889       -5.4395572666       -5.3302769451
 C        -1.3538155830       -4.5167827432       -7.5073474600
 C        -1.9673459412       -3.1839462019       -7.8170828551
 O        -1.3898010992       -2.2057392683       -7.2918665186
 C        -3.2542934767       -3.0822747959       -8.7159831032
 C        -3.3502144347       -1.6295172251       -9.2332213252
 C        -3.7502387440       -1.5050495308      -10.7209950805
 O        -3.0288362347       -2.0478033303      -11.5760377739
 C        -5.0590672709       -0.7280156154      -10.9406669195
 C        -4.9402016451        0.8976470791      -10.7703800946
 O        -5.2242089650        1.4544775924       -9.7718971536
 C        -4.2435835401        1.6794850434      -11.9307928222
 C        -3.3345325039        2.7542157508      -11.4065740770
 C        -2.6704635932        3.6365314535      -12.5002566371
 O        -3.0152733913        3.6319363798      -13.6601839691
 C        -1.3886686594        4.6076236505      -12.1141149050
 C        -1.8692561096        5.9838830991      -12.6516963985
 O        -2.1294327545        6.8612996673      -11.8061626325
 C        -2.1213163869        6.1039573375      -14.1830629260
 C        -3.3404546163        7.0380799034      -14.4585058791
 C        -3.6506872507        7.1271542147      -15.9234086267
 O        -3.8828515945        6.1242606688      -16.5666656150
 C        -3.9370659387        8.5819640138      -16.7334634110
 C        -3.7333368819        8.4212780079      -18.2645605310
 O        -4.4265829380        7.6594893643      -18.8840255626
 C        -2.6520945337        9.2310321074      -19.0821664776
 C        -1.9393479270        8.4277177974      -20.2700428480
 C        -1.3442521208        7.2578091176      -19.5589855334
 O        -1.1039475923        7.3588076522      -18.3942066232
 C        -1.1897134842        5.7561829382      -20.1644023440
 C        -2.2234666452        4.9290730797      -19.3702708493
 O        -3.3739505960        4.8652622188      -19.7262406775
 C        -1.6449946407        4.1569098006      -18.1230405333
 C        -2.7465205658        3.2810173136      -17.4993099303
 C        -3.1502381081        2.0795899118      -18.5250001333
 O        -2.2598918509        1.5597509029      -19.1483135896
 C        -4.5220654269        1.3615851944      -18.5145084712
 C        -5.6289572094        2.4155036282      -18.8308190217
 O        -6.1938195814        2.9705737060      -17.8848941382
 C        -6.2885596353        2.4014844926      -20.2202320055
 C        -6.8820173169        3.7296056313      -20.6348421855
 C        -8.0021639892        4.1917637762      -19.7438671211
 O        -7.7091992763        5.0260063558      -18.8703681845
 C        -9.5274291337        4.0555807372      -20.1078840121
 C        -9.9271811158        2.5126713665      -20.2891684090
 O        -9.2833900377        1.9267974820      -21.1527895111
 C       -10.8469579455        1.9564789015      -19.2202204166
 C       -10.6107906141        0.6235798735      -18.5997701155
 C       -11.8835456712        0.0207539308      -17.9276473374
 O       -12.7508356233       -0.5549873311      -18.5957973621
 C       -11.8986504725       -0.0242453085      -16.3264792591
 C       -11.0659719738       -1.3609267411      -16.1101198738
 O        -9.8906795951       -1.3114614170      -15.7487812587
 C       -11.7698396084       -2.6300090146      -16.4913949263
 C       -11.2992018038        1.2381425806      -15.6052071822
 C       -13.3308397907       -0.2236069581      -15.8394875730
 C       -10.2992486303        4.8318614988      -19.0991293065
 C        -9.7425956505        4.6906084176      -21.5622931105
 C        -4.3698076274        0.0116105192      -19.3969405686
 C        -4.7068283250        0.7560867270      -17.0685602988
 C        -1.6174748513        5.7103936973      -21.6159626427
 C         0.2852121122        5.2637171544      -19.9514736429
 C        -5.4137470699        8.9660716248      -16.3340745595
 C        -2.9981983326        9.6414556384      -16.2854132885
 C        -0.9264244200        4.7962272516      -10.6785179603
 C        -0.2894981521        4.0195084147      -12.9577876884
 C        -5.6497139895       -0.9575598469      -12.4144629303
 C        -6.1618872379       -1.2511124632      -10.0418853421
 C         0.1899387634       -4.4897288002       -7.7575747227
 C        -2.0635923087       -5.6976169433       -8.2866953091
 C        -2.5872209858       -7.8829201195       -3.9466542558
 C        -3.0100045204       -7.1000996374       -1.6148594092
 C         3.4017809499      -10.9677063344       -1.9880459554
 C         1.6697419395      -12.4655122687       -3.1544252890
 C        -1.5395070221      -13.3270317809        3.5172738845
 C        -2.7030253976      -11.1980988054        3.7977594528
 C         3.1865963035       -7.4194007760        2.6960540549
 C         2.4110143327       -6.4161105125        4.8278579635
 H        -0.3481392245       -5.3541434119        4.3083736997
 H        -0.1241098347       -4.2453656390        3.0196918315
 H         1.0071891195       -4.4090286146        4.3782441993
 H         0.2773169271       -8.1450257198        5.8694103274
 H         1.5745017002       -9.3526781126        5.7471125869
 H        -1.2449472131       -9.3322083038        4.6761184967
 H        -0.7056677219      -10.3238590009        6.0752730228
 H        -0.5180706704      -13.5426936450        1.1366010760
 H         0.8394432789      -12.5939036421        1.4945637983
 H        -0.8451109600      -11.5398941859       -0.7265005222
 H         0.1212520079      -13.0940412263       -0.9777218933
 H         2.4898604568       -8.4741367296       -3.8121383043
 H         2.3267478745       -8.3051226500       -2.1468092759
 H         0.1360704207       -7.4952471976       -4.2996633252
 H         1.1086508824       -6.3940557204       -3.3030484694
 H        -3.4893827801       -3.9322322805       -3.3968808775
 H        -3.9509989751       -5.3858383605       -4.2745753034
 H        -2.1511583931       -3.0441521149       -4.7621323143
 H        -3.5362413928       -3.7566247201       -5.7498404449
 H        -4.0795621773       -3.3490954669       -8.0716480323
 H        -3.2956783605       -3.8037074385       -9.4662464400
 H        -2.5166918332       -0.9166788487       -8.9713979677
 H        -4.1357747392       -1.2415349144       -8.5531114735
 H        -5.0260312132        2.1379592940      -12.5044908949
 H        -3.6317437467        1.0584074645      -12.5382583817
 H        -2.4838470268        2.4824887032      -10.8180532672
 H        -3.9206177818        3.4949855231      -10.7356709724
 H        -2.2790925980        5.2184669822      -14.7899166379
 H        -1.1393184799        6.6155324141      -14.6081772421
 H        -3.1165122998        8.0859208577      -14.1659480686
 H        -4.2443053132        6.6247061772      -13.9402318145
 H        -1.9244050871        9.5626091595      -18.3498578464
 H        -3.1580527165       10.1626919983      -19.5130002384
 H        -1.1967662029        9.0215457854      -20.8774762370
 H        -2.7342586409        8.1112319497      -20.9316902263
 H        -1.4625861547        4.9153719065      -17.4046297919
 H        -0.8169926856        3.4904496147      -18.3412998140
 H        -3.6847601999        3.7265278520      -17.2118523601
 H        -2.3996259935        2.6634730626      -16.6887706264
 H        -6.9547667169        1.6161695639      -20.3706284197
 H        -5.4859648564        2.1373124136      -20.9617427612
 H        -7.2211530985        3.6629846983      -21.7251081338
 H        -6.0796366291        4.4948520197      -20.6801759566
 H       -11.8418315923        1.9511945528      -19.5929798926
 H       -10.8067781616        2.6798577813      -18.3623234831
 H        -9.7158582052        0.6732729007      -17.8829757573
 H       -10.3390549940        0.0096817526      -19.3965601264
 H       -12.7624622673       -2.4913516072      -17.0769537423
 H       -11.9694216902       -3.2592859106      -15.6527625017
 H       -11.1419165356       -3.3239082648      -17.1152016594
 H       -10.3618768284        1.6604722769      -16.0979434408
 H       -10.8815379122        0.8949617001      -14.6964155392
 H       -12.0360433741        2.0970477113      -15.4747625252
 H       -13.5122503170        0.5284562693      -15.0226561764
 H       -13.4731504148       -1.2589654888      -15.4440214598
 H       -14.0417710724       -0.0054487058      -16.6848708921
 H       -10.0965542592        4.4555974273      -18.1752967728
 H       -11.2954482643        5.0138144519      -19.3451405492
 H        -9.9210464756        5.8694909151      -19.1314170077
 H        -9.4127660764        3.9904652318      -22.3811798986
 H        -9.1094705821        5.5563082181      -21.5065829085
 H       -10.8155519036        4.7940896416      -21.7234974928
 H        -5.2904560548       -0.6085134535      -19.4082707260
 H        -3.5835514750       -0.5746926894      -18.8414746306
 H        -4.0612837815        0.1716983276      -20.4623852954
 H        -3.7649007028        0.6187938360      -16.6683299784
 H        -5.1980482833       -0.2068918288      -17.0956607192
 H        -5.3390297339        1.3290784643      -16.4220332436
 H        -0.9218894947        6.2415073549      -22.3201729745
 H        -2.6655878075        6.2557970549      -21.6385918169
 H        -1.7319429679        4.6923860993      -22.0536819459
 H         0.8003798207        5.3450578439      -20.9745502380
 H         0.3455511644        4.1995195962      -19.5993005387
 H         0.9411244304        5.8589228658      -19.3482079678
 H        -6.1606494038        8.7975280802      -17.0344797093
 H        -5.4032879757       10.0507601308      -16.0914871355
 H        -5.8035576623        8.5780268454      -15.3774196711
 H        -1.8800114538        9.2974810920      -16.4389667268
 H        -3.2248701975       10.1114868057      -15.3603874352
 H        -3.2243409621       10.5073908295      -16.9410895617
 H        -0.5108695069        3.9070998372      -10.1529482653
 H        -1.7607086183        5.2069090072      -10.0710025334
 H        -0.2088908653        5.5889509316      -10.7046787663
 H        -0.5486748431        3.6753123157      -13.9734020001
 H        -0.0024848130        3.0899305079      -12.4273641217
 H         0.5705625386        4.6947499641      -13.0068058929
 H        -4.9341693637       -0.6765058591      -13.1885976319
 H        -6.5935496478       -0.6008657445      -12.5349251156
 H        -5.6935222325       -2.0039295115      -12.4631786162
 H        -7.0102178710       -0.6248479606       -9.9472671087
 H        -5.8328384909       -1.4770869987       -9.0593798546
 H        -6.4869600731       -2.1790632045      -10.4325693077
 H         0.5631163828       -5.3213951386       -7.1794377619
 H         0.8078977390       -3.6994951464       -7.3995523109
 H         0.3968486032       -4.6801278047       -8.8273435733
 H        -1.7442756083       -6.7010320227       -8.0901988569
 H        -1.7776217288       -5.5882565980       -9.3597961051
 H        -3.1374557789       -5.6566729693       -8.0733544180
 H        -2.1206013812       -8.8277004214       -3.6904446454
 H        -2.2033572797       -7.6650168382       -4.9575829914
 H        -3.6259844316       -7.9990387998       -4.0793463017
 H        -4.0162561210       -6.9157473485       -1.8518007900
 H        -2.8343406278       -6.4619857510       -0.7555973539
 H        -2.9323268130       -8.1149671788       -1.2640193597
 H         3.4963840907      -10.2675913142       -1.1262380395
 H         3.7127147639      -10.4883527676       -2.9771047855
 H         3.8766735907      -11.8713753833       -1.7437030016
 H         2.2924770312      -12.5117187704       -4.0280570100
 H         0.6180644970      -12.3683983839       -3.5985796931
 H         1.6300060432      -13.3550600789       -2.4909562448
 H        -2.2563039711      -13.5673487825        4.2589757025
 H        -0.6435077572      -13.8265008068        3.7275127173
 H        -1.9412533084      -13.7122435492        2.6070512083
 H        -3.6241401564      -11.7308623607        3.5314125213
 H        -2.7799715807      -10.2053347163        3.3608299556
 H        -2.7720376992      -11.0255303673        4.8580298840
 H         3.6334571753       -6.4881279610        2.3687570509
 H         2.8948200413       -7.9995444365        1.8398551296
 H         3.8784861279       -8.0374136168        3.2328011989
 H         2.9244848379       -7.1684212458        5.3293708254
 H         1.6920691423       -5.9463001658        5.4293369891
 H         3.1388832268       -5.6352114659        4.6737768541
 Na        0.4610186844       -8.3507791812        0.6504339995
 Na       -5.3363599405        5.6091693505      -18.4155351528
