232

 C         0.6697949853       -4.6522503558        3.2732497913
 C         0.9065573287       -6.0268206127        2.7265581953
 O         0.5448871080       -6.3136315695        1.5776189700
 C         1.8471684963       -7.0097777139        3.5625806413
 C         1.0234584121       -8.3091313456        3.7379981440
 O         0.6964341784       -9.0023952004        2.8009746124
 C         0.7209872324       -8.8502467788        5.1253222715
 C        -0.5360572420       -9.7246440775        5.1551541935
 C        -0.1780764270      -11.0219464272        4.4660589240
 O         0.6737940092      -11.7851837165        4.8611463750
 C        -1.1454347382      -11.7448963913        3.3294040933
 C        -0.4626082815      -11.5036131386        1.8330548803
 O        -0.6841998957      -10.3965597571        1.4129548198
 C         0.0070068164      -12.6915460650        1.1185241052
 C         0.1455054791      -12.4452432130       -0.3707470219
 C         1.1943288482      -11.4221084246       -0.7292593743
 O         1.7637828856      -10.7656152880        0.1087223360
 C         1.5922148761      -11.2402029659       -2.3124099937
 C         0.7488716741      -10.0361093313       -2.7681325717
 O        -0.4293768563      -10.1648405232       -3.0906443850
 C         1.4119009403       -8.6486131790       -2.9171920198
 C         0.4660718567       -7.5155273675       -3.3671326360
 C        -0.6610829252       -7.4569791729       -2.3309520241
 O        -0.4950064812       -7.6273089267       -1.1439905592
 C        -2.0795802575       -7.1041501379       -2.8800886786
 C        -2.0737970236       -5.6341295150       -3.2845820211
 O        -1.1205039320       -4.9545397339       -2.9516928672
 C        -3.1921541279       -5.1298357019       -4.2955852028
 C        -2.6101616164       -4.1764921618       -5.3348975864
 C        -1.4692824658       -4.9261645025       -6.0742287804
 O        -0.8178981495       -5.8166514951       -5.5572044815
 C        -1.1852060834       -4.4741012573       -7.4784348768
 C        -1.8595822768       -3.0725734009       -7.8234109244
 O        -1.5676796257       -2.1793273739       -7.0785495858
 C        -2.7883782518       -2.8175482270       -9.1305083194
 C        -3.2018240401       -1.3143466644       -9.1372598239
 C        -3.6588044393       -1.0349768861      -10.6128803747
 O        -2.9438732140       -1.0708439825      -11.5691448115
 C        -5.2030079260       -0.3346143059      -10.8626238991
 C        -4.9138236088        1.1636275974      -10.5783172892
 O        -5.1455021699        1.6031408896       -9.4602161394
 C        -4.3688493107        1.9090219233      -11.7929377746
 C        -3.2021654220        2.7868037655      -11.3054575954
 C        -2.7002635793        3.6969233568      -12.4799485447
 O        -3.2303246558        3.6210183262      -13.5863000500
 C        -1.4864390829        4.6817789346      -12.1125070602
 C        -1.7869296839        6.0961210807      -12.7370312150
 O        -1.6642609782        7.0865659186      -12.0085904295
 C        -1.9318374411        6.1954402189      -14.2912076273
 C        -3.4389536148        6.6954672766      -14.5889178011
 C        -3.7704759935        6.9851647418      -16.0462628713
 O        -4.0418955310        5.9603767753      -16.6484994640
 C        -3.8862465051        8.3934685958      -16.7041826458
 C        -3.7777598952        8.3613722770      -18.1772920802
 O        -4.5585077511        7.7150626965      -18.8080722869
 C        -2.7144270712        9.2516084863      -18.9921306806
 C        -2.0197072982        8.2985392506      -19.9933007730
 C        -1.3916211154        7.1323504995      -19.2931080380
 O        -0.7761820890        7.1142091558      -18.2764978262
 C        -1.3693558486        5.7003097682      -20.1372886150
 C        -2.3243936029        4.9033953567      -19.2547131389
 O        -3.5053619522        5.0292879928      -19.4458588168
 C        -1.7380618059        4.1391382718      -18.0365153238
 C        -2.8340833234        3.2162594642      -17.3375486818
 C        -3.1514179100        1.9887240968      -18.3000394002
 O        -2.4502686824        1.7374788990      -19.2277530534
 C        -4.5106349141        1.2373355375      -18.2073688010
 C        -5.6868558301        2.1612392652      -18.6540333351
 O        -6.1413456314        2.9340246041      -17.7951887470
 C        -6.2842500861        2.1498207013      -19.9994658882
 C        -6.7845070670        3.4351323917      -20.6500735167
 C        -7.7854494603        4.2187524464      -19.8611169668
 O        -7.5475003875        5.1699210203      -19.0786490653
 C        -9.3623152034        4.1138460792      -20.1986431968
 C        -9.9156058297        2.6352472411      -20.0459591682
 O        -9.4122865753        1.8296967660      -20.8614126951
 C       -10.7557063285        2.2481439933      -18.8319129114
 C       -11.0682227397        0.7510760480      -18.7967299580
 C       -12.2575376617        0.1879074139      -17.9664259656
 O       -13.3628603710        0.1244401715      -18.5081385732
 C       -11.9542416022       -0.3400714974      -16.5002897027
 C       -11.1669807790       -1.7830375913      -16.4444726691
 O        -9.9747479988       -1.7553075279      -16.1633374430
 C       -11.7236518728       -3.1703354570      -16.8519171543
 C       -11.0772566454        0.7311953302      -15.7124884951
 C       -13.3306336153       -0.2550871289      -15.7998339018
 C       -10.0818637353        5.1747342399      -19.3498295576
 C        -9.3773856212        4.5071732619      -21.6646146109
 C        -4.4979065994       -0.1328731895      -18.9437163637
 C        -4.8051708297        0.9258517006      -16.6994544981
 C        -2.0439309257        5.8157061662      -21.5444793653
 C         0.1370775414        5.2905779550      -20.2698101577
 C        -5.4402966615        8.8071161521      -16.4699242708
 C        -2.8714844312        9.4045324912      -16.0642240598
 C        -1.2096931728        4.9240947045      -10.6202833483
 C        -0.2607440896        4.2116779924      -12.8522774798
 C        -5.6616250306       -0.8412303812      -12.2445122534
 C        -6.3126234093       -0.7700835600       -9.7587275056
 C         0.3210231571       -4.1512999642       -7.7847367352
 C        -1.6752177924       -5.7711352304       -8.2575869960
 C        -2.4613055627       -8.1392456246       -4.0203026493
 C        -3.1085817044       -7.1595466210       -1.8017673184
 C         3.0805694301      -10.9530332058       -2.4525020139
 C         1.2273928085      -12.5274974759       -3.1287504322
 C        -1.0682977265      -13.1737710778        3.7846275069
 C        -2.5237698056      -11.1060566182        3.3367217365
 C         3.0188773224       -7.2982654687        2.5346668751
 C         2.5236140246       -6.5109779257        4.9103828751
 H         0.5275673872       -4.4965526295        4.3421967244
 H        -0.1931356589       -4.1763308893        2.7605496525
 H         1.5899445234       -4.0383428593        2.9551789499
 H         0.7490416919       -8.0950893725        5.9177148180
 H         1.4651461541       -9.6857647908        5.3558724935
 H        -1.5084434429       -9.3768861227        4.7085087799
 H        -0.6548383264       -9.9242405116        6.2930892926
 H        -0.6064076454      -13.5512988799        1.3362931498
 H         0.9160455080      -12.9122993735        1.5224766493
 H        -0.8945010778      -12.0902136527       -0.6838770817
 H         0.3570937855      -13.3510556143       -0.9298668401
 H         2.3434311255       -8.6673751337       -3.5596523474
 H         1.7376975284       -8.3542161204       -1.9032440948
 H        -0.0295815896       -7.7977514689       -4.3101460338
 H         0.9087387357       -6.5231893621       -3.3612384056
 H        -3.9557170049       -4.6037356298       -3.6332028892
 H        -3.8240717361       -5.7994847398       -4.9652721753
 H        -2.1863912132       -3.3747855897       -4.6946570952
 H        -3.4355930241       -3.8730833694       -5.9883377732
 H        -3.6526473697       -3.4850286725       -8.9175869640
 H        -2.3571772688       -3.1560759110      -10.1019919311
 H        -2.3999061900       -0.6434039668       -8.8603629640
 H        -3.9040104031       -1.0650744738       -8.4029931597
 H        -5.1607743060        2.5067560242      -12.2756374197
 H        -3.9578916657        1.2557345011      -12.4454459592
 H        -2.3063844321        2.2962429827      -10.9583901024
 H        -3.5299362749        3.4407172586      -10.4772137315
 H        -1.8746267351        5.2577943889      -14.8026003245
 H        -1.2433579851        6.9205312864      -14.7519052715
 H        -3.6475159689        7.6048922682      -14.0114367346
 H        -4.1865795441        5.9465640241      -14.3334263012
 H        -1.9507272450        9.7167369363      -18.4317099089
 H        -3.2721996405       10.0404723826      -19.4686981665
 H        -1.2557943980        8.8063919284      -20.5736854157
 H        -2.7498593544        7.9814010304      -20.6697533202
 H        -1.5254398622        4.8537269520      -17.2278719594
 H        -0.9024813174        3.5672957254      -18.3865778260
 H        -3.7833140387        3.7241047037      -16.9922751915
 H        -2.4657946214        2.7330107366      -16.4178709173
 H        -7.0513513317        1.3408019256      -19.9805129553
 H        -5.5143942316        1.8389211034      -20.7052018809
 H        -7.2396052080        3.1670333136      -21.6267609728
 H        -5.8951288000        3.9956989308      -20.8780891260
 H       -11.6955736239        2.8457365795      -18.8225618406
 H       -10.2009554318        2.5253830084      -17.9247297052
 H       -10.1152768563        0.2024888650      -18.4996834854
 H       -11.2288924376        0.5383321743      -19.7876026642
 H       -11.9195415095       -3.3060049650      -17.9662285187
 H       -12.6476568312       -3.3921048466      -16.4754029310
 H       -10.9826937888       -3.9185721952      -16.6092485880
 H       -10.0522534328        0.6845694513      -15.9937500373
 H       -11.0465806772        0.6194482085      -14.6521977370
 H       -11.4831978679        1.7142221865      -15.8994241370
 H       -13.2782795678       -0.7385560671      -14.8181282274
 H       -14.1018408074       -0.6587183593      -16.3543320191
 H       -13.4615404419        0.7438172348      -15.6180056996
 H        -9.7694741637        5.1091620055      -18.3144893919
 H       -11.1458773517        5.0879188787      -19.4933681978
 H        -9.9303980820        6.2115006744      -19.7405471108
 H        -9.1147504541        3.5995318894      -22.2549674504
 H        -8.7538329631        5.3663132614      -21.8347942420
 H       -10.3951655539        4.6798647826      -21.9428877696
 H        -5.4379027633       -0.6207254093      -18.8847748277
 H        -3.7078647956       -0.7769082998      -18.5786262961
 H        -4.1934675689        0.0003846046      -19.9662113197
 H        -4.2288502857        0.0423206057      -16.3315021699
 H        -5.9312469283        0.7767324176      -16.5558357035
 H        -4.4850928175        1.7356299687      -16.0460465021
 H        -1.8156588686        6.6751782091      -22.0341635908
 H        -3.0900184659        5.7541227512      -21.4082694960
 H        -1.7880178055        5.0387511334      -22.1585720209
 H         0.7279346583        6.1521439560      -20.1166638323
 H         0.3380442440        4.7880644246      -21.1837057819
 H         0.4952875456        4.6683104369      -19.4887712706
 H        -5.6730988724        9.5940631922      -17.1606680394
 H        -5.7360883159        8.9583920022      -15.4338945244
 H        -6.1864837549        7.9738705485      -16.6698254372
 H        -1.8258644639        8.9136139927      -16.1682030702
 H        -3.1343012678        9.5610245349      -15.0419807994
 H        -2.8367076390       10.3609294935      -16.5747100384
 H        -0.7887085834        4.0104285239      -10.1599771518
 H        -2.1259349348        5.1699964840      -10.1105429918
 H        -0.4143610215        5.6125035593      -10.4489198578
 H        -0.4751673424        4.0803391066      -13.8835572931
 H         0.1074901831        3.2647645688      -12.4993970310
 H         0.5609243405        4.9328799451      -12.7120313739
 H        -4.7124974243       -0.7292071449      -12.8992161259
 H        -6.4786754096       -0.1477948700      -12.5486100989
 H        -5.9172954268       -1.9003914970      -12.4217552766
 H        -7.2476140070       -0.3483784049      -10.1330133798
 H        -6.1592071758       -0.3671864316       -8.6967901279
 H        -6.5241964754       -1.8768708412       -9.7083615788
 H         0.9455573639       -4.9770526508       -7.4015535302
 H         0.7767464994       -3.3168654388       -7.2635579353
 H         0.4393032280       -4.0360965036       -8.8615037403
 H        -1.0999550117       -6.6629822003       -8.0546835377
 H        -1.5952278689       -5.5815631657       -9.3458517650
 H        -2.7539843259       -5.9944456825       -8.1251437972
 H        -2.7162571950       -9.1483013740       -3.6242482002
 H        -1.6817681626       -8.3550379624       -4.7834669306
 H        -3.2452466578       -7.7876431338       -4.6090986656
 H        -4.0087709566       -6.6092934675       -2.0680152121
 H        -2.7134034834       -6.7846200500       -0.8454335230
 H        -3.3733229161       -8.1826177967       -1.3783892672
 H         3.3240188227      -10.1185919969       -1.8582159361
 H         3.3841236036      -11.0142745751       -3.4964769450
 H         3.5067183488      -11.8221826263       -1.9898963562
 H         1.3869231604      -12.3231463757       -4.1682578897
 H         0.1976846406      -12.9395240741       -3.0918646030
 H         1.9271335832      -13.2728795916       -2.8691216424
 H        -1.1728745132      -13.1097822118        4.8559778405
 H        -0.0918589538      -13.6587814509        3.5058297352
 H        -1.8868990289      -13.8712211432        3.4177502445
 H        -3.1781598927      -11.4872376921        2.5428716646
 H        -2.5814766244      -10.0408819072        3.1018377742
 H        -3.0672402188      -11.3183396188        4.2451109087
 H         3.5979653893       -6.4117507248        2.2299869163
 H         2.5251495253       -7.7921491487        1.6833952878
 H         3.7047531782       -8.0422592667        2.9177492680
 H         3.2780336792       -7.2553279082        5.1927172720
 H         1.9104174799       -6.1821486019        5.8293374548
 H         3.1729536306       -5.6160286625        4.6176679284
 Na        0.8550775018       -8.5822992233        0.5664096170
 Na       -5.4497676145        5.5035160003      -18.3084306034
