232

 C       -18.7868546369      -12.2033408380        0.5800258719
 C       -17.7032286182      -12.5091929543       -0.4771340173
 O       -17.4826062270      -11.6451248076       -1.3569469017
 C       -16.9076252141      -13.8317742164       -0.3428457281
 C       -15.4207503578      -13.4470913013       -0.8598536360
 O       -15.3028953543      -13.2753826314       -2.0391764144
 C       -14.3479190945      -13.1254685352        0.2025658498
 C       -13.1000582885      -12.4672956175       -0.5384292935
 C       -13.6098273508      -11.4800319275       -1.5965391523
 O       -14.6420527367      -10.9446325562       -1.3732702357
 C       -12.7414468805      -11.0665149381       -2.8295336574
 C       -13.6023649680      -10.9990630941       -4.1679258935
 O       -14.5047332663      -11.8170690054       -4.2865125578
 C       -13.3505619794      -10.0675653088       -5.2792760474
 C       -14.6692656576      -10.0095674544       -6.2224372587
 C       -15.7230985589       -9.0637738020       -5.7051337900
 O       -16.2045057703       -9.0880592370       -4.6363743016
 C       -16.3304815438       -8.0876393914       -6.8562104457
 C       -15.2156102938       -6.9681422103       -7.0900341009
 O       -14.2437182245       -7.0392463116       -6.3837316575
 C       -15.3034898460       -5.8405794398       -8.2311551223
 C       -14.3836476210       -6.2474825748       -9.3172811527
 C       -14.1649095913       -5.1315393705      -10.4252506816
 O       -15.0762481340       -4.8740905200      -11.1617540549
 C       -12.6535744151       -4.7424506346      -10.7546295781
 C       -12.3080079239       -3.7948366805       -9.5872911631
 O       -12.4862368884       -4.2459235337       -8.4634964754
 C       -11.8645329716       -2.3839072569       -9.7536616530
 C       -11.0640927557       -1.8083982244       -8.6284318080
 C       -10.4776675216       -0.5344026958       -9.1028325416
 O       -10.3826831174       -0.1841651575      -10.2787937035
 C        -9.6146967262        0.3543248795       -8.0513619741
 C        -8.1431529158       -0.0498912947       -8.4018851349
 O        -7.6155080792       -1.0364291191       -7.9597173360
 C        -7.4581815201        0.7274562029       -9.5517348952
 C        -5.9952742723        0.4855432873       -9.8665991535
 C        -5.3070946325        1.6602792022      -10.6577312887
 O        -5.6252276900        2.8298653031      -10.5669107978
 C        -4.1227435597        1.3333563777      -11.6895149558
 C        -2.9929172891        0.5516100067      -10.9548315032
 O        -2.9497648707       -0.6578067107      -10.9468991116
 C        -1.8744345209        1.3907048148      -10.3035893819
 C        -1.0870229667        0.6170833194       -9.2387923704
 C         0.1257236358        1.4422680645       -8.7625723310
 O        -0.0342424435        2.5742040864       -8.3495296030
 C         1.5185086242        0.8299097584       -8.5659878046
 C         2.5545435520        2.1310816285       -8.8722867872
 O         3.1371540050        2.2594689460       -9.9525942687
 C         2.5822137035        3.2224672074       -7.8196317232
 C         3.8428849157        4.1146611158       -7.9652286494
 C         3.7249644376        4.8815453075       -9.3647864399
 O         2.7655898323        5.5722296258       -9.5471880850
 C         4.8979596418        4.8750663227      -10.3729724867
 C         4.3561856255        4.5449834797      -11.9006326144
 O         4.7234578784        3.5663783201      -12.4921995329
 C         3.2407622499        5.5856247243      -12.3392868847
 C         3.6417098660        6.7251040275      -13.3195165666
 C         4.0109405817        6.2051670654      -14.8200361508
 O         4.3772361640        5.0732591887      -15.0049910478
 C         3.7638980172        7.2515915248      -15.9503910556
 C         5.0522558656        7.1727278118      -16.7867379374
 O         5.1298607999        6.5850052480      -17.8190416710
 C         6.3734122402        7.7398079538      -16.1053509149
 C         7.5978900397        6.8104770641      -16.6063279512
 C         7.5767810036        5.3476971110      -16.2171445722
 O         7.1348605577        5.0577940479      -15.1270051628
 C         8.0469108526        4.2728651675      -17.3159447532
 C         9.4381270367        3.8153204617      -16.8138471993
 O         9.6504697292        3.6534350603      -15.6743815486
 C        10.5531475355        3.5957285195      -17.8966483277
 C        11.3333071032        2.3118891384      -17.4973829482
 C        10.5350899000        0.9894211880      -17.5595758759
 O         9.5337822934        0.9017577250      -18.2501553831
 C        11.2618865701       -0.2518650714      -16.7987018419
 C        10.6894253472       -0.3262674082      -15.2747196065
 O        11.4798898444       -0.7198268522      -14.4620451658
 C         9.3422895976        0.3822460558      -14.9372729285
 C         8.8335605690        0.1010891614      -13.5219762364
 C         7.4973779932        0.7738357096      -13.3076699320
 O         7.4527112789        1.9380220389      -13.0166813265
 C         6.1672232196       -0.1659052534      -13.0844508601
 C         5.3972999990        0.0501155361      -14.5743037241
 O         5.5434726584        1.0749789918      -15.1680089757
 C         4.5446693620       -0.9935091626      -15.1137310039
 C         6.5164333902       -1.6993920108      -12.8535058885
 C         5.1615226976        0.4221984994      -12.0619162817
 C        10.6898403117       -1.5268220586      -17.4256418260
 C        12.7311961859       -0.2322009915      -16.9322188966
 C         7.0756071393        2.9840311907      -17.1588869340
 C         7.8915435305        4.7221834587      -18.8297352790
 C         2.6287037119        6.6924407176      -16.8187488544
 C         3.4461635333        8.7230035451      -15.5380291354
 C         5.5165298209        6.2950107729      -10.3453358825
 C         6.0335601550        3.8836517458       -9.9627143182
 C         1.5783253730        0.3999057118       -7.0369649224
 C         1.8384216593       -0.3483198447       -9.4951682543
 C        -4.7398776444        0.4437610772      -12.8091586401
 C        -3.6516644698        2.5985225884      -12.3675490335
 C        -9.8044953348        1.8692350169       -8.2804765668
 C        -9.8620485341       -0.0499975856       -6.5419919654
 C       -11.5356032495       -5.8063991640      -10.6540354396
 C       -12.5471420645       -3.9321872176      -12.0756551869
 C       -16.6625464500       -9.0048729691       -8.2307137241
 C       -17.7262665567       -7.4696105154       -6.2576705668
 C       -12.1068402030       -9.7299782848       -2.5001548459
 C       -11.5518522490      -12.0595553690       -3.0554745758
 C       -16.9497139779      -14.4493436022        1.0344046591
 C       -17.5397796197      -14.7801211103       -1.3980215470
 H       -18.2346886875      -12.1829679858        1.5611311948
 H       -19.6097452478      -12.8590634707        0.5750946942
 H       -19.0975421295      -11.1767362910        0.3909752418
 H       -14.1507104140      -14.0424865408        0.7770899363
 H       -14.7636221863      -12.4151074914        0.9473476338
 H       -12.4933757644      -13.2485064407       -0.8455497333
 H       -12.5346628276      -11.9387294094        0.2006031833
 H       -12.5762681067      -10.4958220788       -5.8922050663
 H       -12.9488990517       -9.0956896453       -5.0157436716
 H       -15.1645937843      -11.0358110154       -6.2126426561
 H       -14.1344557894       -9.7920588646       -7.1996305673
 H       -15.1511286600       -4.8431869792       -7.9116930466
 H       -16.3524079619       -5.8947526499       -8.6362592725
 H       -14.7866587801       -7.1381902085       -9.8389085071
 H       -13.4959077329       -6.5911879988       -8.8596901439
 H       -12.7383744141       -1.8064463146      -10.0844003859
 H       -11.2969775458       -2.3894486260      -10.7609889569
 H       -10.2646708874       -2.4388472151       -8.2708293900
 H       -11.8132104190       -1.7757818733       -7.8367361401
 H        -7.4585184572        1.7770422491       -9.2500373288
 H        -7.9875346536        0.6095312520      -10.5160669785
 H        -5.8187923064       -0.4978258512      -10.3852655617
 H        -5.3277710815        0.5011083722       -8.9876529649
 H        -2.3532419651        2.3215963888       -9.9477734470
 H        -1.3318387723        1.7364016150      -11.2724559095
 H        -0.6572060408       -0.2343080370       -9.5985448771
 H        -1.6470752921        0.4256365493       -8.3172371239
 H         2.6833730164        2.6363674080       -6.8006987212
 H         1.6313013816        3.7916441742       -7.9401723394
 H         4.6618550903        3.4552793511       -8.0067179439
 H         3.9642496094        4.9314195986       -7.2284665541
 H         2.8291880992        6.0326929096      -11.3532995954
 H         2.5488025359        4.9288051953      -12.8302602175
 H         4.5365036552        7.2154182925      -12.9541362309
 H         2.9385993254        7.5033523524      -13.3839221421
 H         6.1863242694        7.7003243259      -15.0206228209
 H         6.4222503035        8.8013640958      -16.4424769044
 H         8.4233188037        7.2948995584      -16.0884202336
 H         7.6934846157        7.0126218118      -17.6308762820
 H        11.2298231347        4.5173973491      -17.8199232837
 H        10.3085313627        3.4572832314      -18.9477331575
 H        11.9277986798        2.3341301362      -16.6111553247
 H        12.2190870028        2.3111112235      -18.1968948776
 H         8.5686424042        0.1712392899      -15.6500041661
 H         9.6558829350        1.4337749918      -15.1495848962
 H         9.5996331353        0.4336988680      -12.7097260251
 H         8.7108215208       -0.9407778778      -13.4200588472
 H         5.0361701743       -1.4926062336      -15.9649207343
 H         3.5326072974       -0.6170876861      -15.5332764416
 H         4.2206595259       -1.6973800654      -14.3661859993
 H         5.6633096103       -2.3489351352      -12.6939645061
 H         7.0691967903       -1.8676183443      -11.8940535035
 H         7.0630305985       -2.0543233213      -13.7370771096
 H         5.2601558963       -0.0267578791      -11.0603752027
 H         4.2031626540        0.0793287574      -12.2947622767
 H         5.1118249742        1.4644338464      -11.8292754072
 H        10.9140587710       -1.5014036029      -18.5266296234
 H         9.5863150419       -1.5114912590      -17.3316061631
 H        11.2427884801       -2.3126298106      -16.9708919751
 H        13.0967634700       -0.2256984572      -17.9408934532
 H        13.1295737054       -1.0558649897      -16.3736217595
 H        13.1230686648        0.6964145579      -16.5907878180
 H         7.1677318011        2.4139872494      -16.1870474371
 H         7.3731329358        2.1566256851      -17.8579344620
 H         6.0169013154        3.2507491668      -17.4898398563
 H         8.4451520379        5.6402097493      -19.1752270319
 H         6.8647037497        4.9404907059      -18.8962052106
 H         8.2914164453        3.8953913837      -19.4263816930
 H         1.7575400504        6.5158329342      -16.2733414144
 H         3.1209464320        5.7633882259      -17.2283978863
 H         2.2894087505        7.1766602668      -17.6940771447
 H         3.4382587969        9.2900452160      -16.4121315767
 H         4.1964966096        9.0919731227      -14.8966757739
 H         2.5308453958        8.8118617843      -14.9718461255
 H         5.7334099423        6.6290747552       -9.3108348940
 H         4.8978340700        7.0765039566      -10.6152753253
 H         6.5061741183        6.5555110341      -10.8453879366
 H         6.7426356344        3.6712019727      -10.8124493735
 H         5.4939137537        2.9089915323       -9.8404414046
 H         6.8174134815        4.1263446532       -9.1303794855
 H         1.0876444214        1.1089272995       -6.3410884690
 H         2.5044973200        0.0497654878       -6.7213729553
 H         1.0758967474       -0.5362144895       -7.0916400662
 H         1.0300418319       -1.0496928814       -9.5906366679
 H         2.7029617751       -0.9810265345       -9.2287490858
 H         2.1667115596       -0.0491718505      -10.4877790293
 H        -5.3078041009       -0.4753654084      -12.4537947274
 H        -3.9564054990       -0.0478427166      -13.4153010026
 H        -5.4635728126        1.0392293106      -13.4341222094
 H        -2.9326538769        2.4275228977      -13.1550611180
 H        -3.1182291832        3.2872927393      -11.7028371420
 H        -4.5364859208        2.9870990018      -12.7981507635
 H       -10.7798705339        2.2542640692       -7.8493241524
 H        -9.9830988790        2.0019136697       -9.4069057314
 H        -8.9470051177        2.4394088650       -7.9876029794
 H       -10.8078122808       -0.4572467999       -6.2283992261
 H        -9.7027388061        0.8734861566       -5.9455189915
 H        -9.1063800209       -0.7348540781       -6.0951047597
 H       -10.6815901317       -5.6386918456      -11.2618716317
 H       -11.9548888836       -6.7741660623      -10.8738165679
 H       -11.2540186653       -5.7866742578       -9.6196617652
 H       -12.8444532708       -4.6171454524      -12.8434955399
 H       -11.5311174390       -3.6334749564      -12.2602848954
 H       -13.1819743494       -2.9936023539      -11.9146639183
 H       -15.7243124846       -9.1660886821       -8.7909266169
 H       -17.2709427681       -8.4259563362       -8.9992783209
 H       -17.1731468752       -9.9279791351       -7.9086370746
 H       -17.5113261126       -7.1267855292       -5.2126284240
 H       -18.4068280867       -8.3008960104       -6.1381865149
 H       -17.9537784536       -6.6875613513       -6.8552068575
 H       -12.9058248149       -9.0089145951       -2.4425913521
 H       -11.2973494164       -9.5053036944       -3.2089365620
 H       -11.6569977306       -9.9341953197       -1.5060548138
 H       -11.9129311665      -13.0707194684       -3.2087683876
 H       -10.9148316345      -12.0873005733       -2.2154339818
 H       -11.0333681232      -11.8335361536       -3.9975779623
 H       -16.4837533680      -13.7007555183        1.8135325512
 H       -16.2576403312      -15.3284574946        1.0187372353
 H       -17.8857451882      -14.6198419154        1.4667593631
 H       -17.0261063623      -15.7971653799       -1.3411418762
 H       -17.3778810850      -14.4056473128       -2.4257703802
 H       -18.6061544667      -14.9186311021       -1.2721749136
 Na      -16.3473814090      -11.2522707846       -3.1993889122
 Na        6.0525424066        3.1949719214      -14.3558467121
