232

 C         0.8490147548       -4.5530780701        3.0228886892
 C         1.0894855590       -5.9665367041        2.6551321773
 O         0.5257497585       -6.4288283202        1.6739194009
 C         2.1595108157       -6.8816065096        3.4476011876
 C         1.1737133024       -8.1548137801        3.8334944983
 O         0.8331280400       -8.8969536139        2.8933431961
 C         0.6185393266       -8.4974168115        5.2047154348
 C        -0.5673707888       -9.5510631892        5.0430923377
 C        -0.0401641466      -10.9459077427        4.3827408668
 O         0.9924689198      -11.3983119112        4.7635815570
 C        -1.0678469762      -11.7422422949        3.2840770903
 C        -0.5506331809      -11.6225790895        1.9077303399
 O        -0.6100247638      -10.5387356015        1.2409868571
 C         0.2634322049      -12.7990567458        1.2249273152
 C         0.3373607466      -12.6558574297       -0.3253576921
 C         1.3825945443      -11.6447543886       -0.7854433319
 O         2.1079473429      -10.9917274181       -0.0399786505
 C         1.5075309748      -11.3848852840       -2.4128620043
 C         0.6459670709      -10.1158202261       -2.7561649086
 O        -0.5578799260      -10.1983442188       -2.9600926245
 C         1.3717034360       -8.7928977492       -2.7954680710
 C         0.4880506148       -7.5863957460       -3.1613253601
 C        -0.7981849122       -7.5730943385       -2.2395771047
 O        -0.6843566181       -7.7330964346       -1.0158001640
 C        -2.1802716247       -7.2718815530       -2.8622002259
 C        -2.1159441060       -5.7335343504       -3.3847300210
 O        -1.2147916883       -5.0202740983       -3.0140350699
 C        -3.1634734478       -5.1198975195       -4.2737342224
 C        -2.5224198541       -4.2667896157       -5.4301142412
 C        -1.5540934087       -5.0045237661       -6.2593441565
 O        -0.9360229791       -5.9912117553       -5.9005593966
 C        -1.1266000088       -4.3679107414       -7.6329338231
 C        -1.7119545714       -2.9180085404       -7.8854751736
 O        -1.7242021803       -2.0897366095       -7.0092749687
 C        -2.2945736122       -2.5497243220       -9.3235136644
 C        -3.3256903859       -1.4680034893       -9.2020104314
 C        -3.8158999043       -0.8516657165      -10.5036623811
 O        -2.9972125892       -0.5595730656      -11.3789297146
 C        -5.2340307863       -0.3370528875      -10.6358492137
 C        -4.8898655642        1.2476150699      -10.5155708898
 O        -5.0336437143        1.8104041913       -9.4416876233
 C        -4.3509261895        2.1048409433      -11.7464276003
 C        -3.1375889337        2.8978755487      -11.3659880870
 C        -2.6052781152        3.8834886817      -12.4530224597
 O        -3.0584017296        3.8227463837      -13.5771528223
 C        -1.4425536488        4.8287232855      -12.1401535481
 C        -1.6056624393        6.2906971496      -12.8695564844
 O        -1.6197773808        7.2836750951      -12.2416979799
 C        -2.0069528563        6.4037237004      -14.4445560178
 C        -3.4405517355        6.7863113124      -14.4825436402
 C        -3.9139974769        6.9496131096      -15.9029636401
 O        -4.0899350626        5.9348514577      -16.5555917721
 C        -4.0826198313        8.3415717946      -16.5226626016
 C        -3.8403853998        8.2047934138      -18.1299093977
 O        -4.6558263367        7.5728384863      -18.7997555878
 C        -2.7136639634        9.0429568545      -18.7055148104
 C        -1.9990748371        8.4130272840      -19.9138018946
 C        -1.3584347001        7.0614615463      -19.3548105674
 O        -0.7905709315        7.1175751815      -18.2511397556
 C        -1.4434901651        5.6599788465      -20.0805354216
 C        -2.4066023851        4.7683752638      -19.2215834387
 O        -3.6002693367        4.6795896963      -19.5788870771
 C        -1.8969666628        4.1435315051      -17.9765041007
 C        -2.7924198430        3.0801311035      -17.4040537130
 C        -3.2309450590        1.9378372883      -18.3447071959
 O        -2.7578016041        1.6817248249      -19.4393086695
 C        -4.5441159405        1.2286735793      -17.8861942931
 C        -5.5735716580        2.2653417430      -18.3826034531
 O        -5.8701083154        3.2362618717      -17.7351223711
 C        -6.2780947631        2.0015442968      -19.7643812660
 C        -6.6991240147        3.3204025091      -20.5716585491
 C        -7.7883631369        4.2963867413      -19.9434049836
 O        -7.3704190608        5.2027910543      -19.2405177127
 C        -9.2645809585        4.0491709035      -20.2615475531
 C        -9.8234949447        2.6327018079      -19.8819625253
 O        -9.3891277124        1.6846585047      -20.4963526172
 C       -10.7887805497        2.3123047708      -18.7161183634
 C       -11.1381617805        0.7527382706      -18.8714313645
 C       -12.3147281967        0.3084856729      -18.0095097862
 O       -13.4063337717        0.6203205227      -18.3122920420
 C       -11.9024957885       -0.4355952154      -16.6516420169
 C       -11.2333501158       -1.7807510152      -16.7932487010
 O       -10.0743523470       -1.8587141531      -16.4923726759
 C       -12.1178372095       -2.9608581106      -17.1443623660
 C       -10.8785418452        0.5172942991      -15.9930950604
 C       -13.1431678197       -0.7335155882      -15.8446034201
 C       -10.0862686893        5.1198222829      -19.5122769789
 C        -9.5407872658        4.2143473453      -21.7895637866
 C        -4.7383664909       -0.0687668138      -18.7019888750
 C        -4.6750524230        0.9748050242      -16.3860759241
 C        -2.0551517000        5.8419187508      -21.5375357414
 C        -0.0415340863        4.9155320473      -20.3233458873
 C        -5.3940120906        8.9426875052      -16.0673952314
 C        -3.0886182789        9.3138212234      -15.8203201345
 C        -1.2590722215        4.9707641129      -10.5907219348
 C        -0.2224555620        3.9818801677      -12.6727705163
 C        -5.8370367042       -0.4210419515      -12.0791272969
 C        -6.1569285973       -0.9843359665       -9.5510746333
 C         0.4366845273       -4.2552979712       -7.7395206211
 C        -1.5777402167       -5.2425227400       -8.7496554524
 C        -2.6192550735       -8.2161331728       -3.9976681945
 C        -3.1926633803       -7.4148402718       -1.7066321919
 C         3.0540354964      -11.1264718864       -2.5840064983
 C         0.9308207462      -12.5794472117       -3.2148368776
 C        -1.2458838631      -13.2672430400        3.7234258267
 C        -2.5433021114      -11.2065223875        3.3145142536
 C         3.2963332725       -7.4296185396        2.7252747314
 C         2.5476959959       -6.0995710501        4.7661834721
 H         0.7939954867       -4.4670816240        4.1318446106
 H        -0.0856152868       -4.1602151384        2.7122509454
 H         1.6235224346       -3.9120133274        2.6754731818
 H         0.2074641746       -7.5819584044        5.6733174901
 H         1.5093163444       -8.8091993119        5.7131792294
 H        -1.2588202567       -9.0270643671        4.4162911161
 H        -1.0873609502       -9.7867791340        5.9413474768
 H        -0.2214850676      -13.7740535698        1.3669075394
 H         1.3593394864      -12.9433004233        1.5760814601
 H        -0.6319848811      -12.3962117467       -0.7247448270
 H         0.5634152327      -13.6767710073       -0.7443200714
 H         2.1456824181       -8.8240547787       -3.5264204647
 H         1.8397111977       -8.5553747959       -1.8250931635
 H         0.1811115512       -7.5711932509       -4.2002622315
 H         1.0454477705       -6.7159588258       -2.7572246593
 H        -3.8909609767       -4.6153621445       -3.6614133232
 H        -3.6767572339       -5.9084996840       -4.7815269596
 H        -2.0180480980       -3.5396261903       -4.8147957766
 H        -3.2777494040       -3.8511109309       -6.1259978333
 H        -2.7686282411       -3.4007119678       -9.7443203049
 H        -1.4139341513       -2.2709020656       -9.8647279659
 H        -3.0819124604       -0.6713130699       -8.4809450598
 H        -4.1587937807       -1.9903773730       -8.6128202946
 H        -5.1720545750        2.7872194760      -12.0399301728
 H        -4.0792619150        1.4702142981      -12.6508155518
 H        -2.2409930983        2.2849265431      -11.1021187672
 H        -3.4027260578        3.4685103452      -10.4716010055
 H        -1.7821370933        5.4804229487      -15.0930480030
 H        -1.5446483460        7.2909024739      -14.9092673062
 H        -3.5376654670        7.5813881719      -13.7240274645
 H        -4.1426458105        5.9499622652      -14.2267786435
 H        -1.9553846214        9.4389213859      -17.9632658006
 H        -3.2546974417        9.9775648956      -18.9750858780
 H        -1.2337315501        9.1181577422      -20.2327866434
 H        -2.7237425508        8.3617392819      -20.7958078100
 H        -1.8885053741        4.9044657341      -17.2159232675
 H        -0.9088440092        3.7474206565      -18.2307333773
 H        -3.7401985998        3.4888004997      -17.1269906856
 H        -2.4973519139        2.6417040635      -16.4461911203
 H        -7.2552358943        1.5998521458      -19.5022850413
 H        -5.7618797239        1.3492485055      -20.4443529401
 H        -7.0773699761        2.9068590792      -21.5115549863
 H        -5.8149578953        3.9913503174      -20.8384603589
 H       -11.7234493542        2.8560218010      -18.6134840234
 H       -10.2555490034        2.4838050924      -17.7737724764
 H       -10.2906461095        0.1459754550      -18.8337189065
 H       -11.5367563512        0.7393069594      -19.9749110388
 H       -11.8708222594       -3.3358093975      -18.1030761248
 H       -13.2156209892       -2.6558808028      -17.3730085502
 H       -11.9233141943       -3.8638840225      -16.5292731008
 H        -9.9216606050        0.5784489960      -16.5278357636
 H       -10.6488319715        0.1813045212      -14.9350126849
 H       -11.3018945010        1.4710486626      -15.7258711896
 H       -13.1405906335       -1.7037106158      -15.3302201995
 H       -13.9622803758       -0.7460418739      -16.6207868349
 H       -13.3567092433        0.0575648367      -15.0588004754
 H       -10.2894138063        4.9177306089      -18.4297017765
 H       -11.0257367089        5.1830362546      -20.0287696281
 H        -9.6140982322        6.0317395575      -19.5428762715
 H        -9.1470290437        3.3848726893      -22.3577557169
 H        -9.1922786819        5.2590395231      -22.0856057022
 H       -10.6701122553        4.2376158128      -21.9108185338
 H        -5.7538109013       -0.4327194643      -18.3839795032
 H        -3.9896057360       -0.8404629596      -18.4913242936
 H        -4.5964614986       -0.0284889153      -19.7995154045
 H        -3.9333609134        0.3216859228      -15.9610773978
 H        -5.5988131853        0.5388850307      -16.2665084406
 H        -4.5910572945        1.8832025843      -15.8143655376
 H        -1.2003131340        6.3049338385      -22.2267988111
 H        -2.9662343096        6.5275665690      -21.6247885332
 H        -2.3783723747        4.8669249550      -21.9652210479
 H         0.7846900431        5.6248812848      -20.2113738114
 H        -0.0231110296        4.4283597980      -21.3061178161
 H         0.1565106377        4.1314753204      -19.5165087189
 H        -5.3470575317        9.9471391024      -15.5698531599
 H        -5.8639089945        8.1501073414      -15.5413770276
 H        -6.1430367924        9.0267755899      -16.8041691825
 H        -2.1114111343        8.9502347253      -16.0087675733
 H        -3.2328863891        9.1617852960      -14.6830914563
 H        -3.1396076005       10.3848438342      -16.1602799588
 H        -0.7510120939        4.1816299242      -10.1152696966
 H        -2.2408531560        5.0156276530      -10.1835152384
 H        -0.6044871798        5.8086189835      -10.3186602913
 H        -0.3518734865        3.8080549846      -13.7576909648
 H        -0.2727437015        2.9972338332      -12.1848855662
 H         0.7764413606        4.3265041981      -12.4725427667
 H        -5.1300507094       -0.3843339850      -12.8101153748
 H        -6.6650209554        0.2648763785      -12.2276936486
 H        -6.1818718317       -1.4272282825      -12.1525573470
 H        -7.2006406235       -1.0755347635       -9.8638817785
 H        -6.0821473099       -0.4960301159       -8.6129424624
 H        -5.8577032027       -2.0025140732       -9.4250291504
 H         0.9824381229       -5.1845102872       -7.8161534501
 H         0.8460691088       -3.7144119741       -6.8948149490
 H         0.7005872760       -3.6502052185       -8.5808701981
 H        -1.1710799704       -6.2355121928       -8.5786190490
 H        -1.3538663589       -4.8152284395       -9.6966838471
 H        -2.6304800024       -5.2889301103       -8.9169669070
 H        -2.3431986134       -9.2282951627       -3.8976350340
 H        -2.2045223681       -7.9139771919       -4.9106997177
 H        -3.7299312805       -8.1818249223       -4.1526052586
 H        -4.1889982175       -7.3590241024       -2.1178104341
 H        -3.0770744052       -6.6524015648       -0.9794919741
 H        -3.1721299465       -8.2210102331       -1.0634901260
 H         3.3101715093      -10.3939049426       -1.7976098039
 H         3.1082507141      -10.7984137601       -3.5963523492
 H         3.6791729857      -12.0651484960       -2.5903663942
 H         1.3642538358      -12.5708907696       -4.2740063260
 H        -0.1430219153      -12.6481255414       -3.2951197822
 H         1.3664727672      -13.5620293431       -2.8452400905
 H        -2.0287270589      -13.3712315978        4.4510472169
 H        -0.3755372475      -13.7911298909        4.0166183860
 H        -1.5981594342      -13.7397608781        2.8724430488
 H        -3.1757569751      -11.9652088540        2.8962927335
 H        -2.8504409068      -10.3708343910        2.7325527988
 H        -2.8819416002      -11.1287494575        4.3418609994
 H         3.9723864765       -6.6174264194        2.7580470933
 H         3.0568537706       -7.7081537478        1.7300709738
 H         3.8275839499       -8.2306026729        3.1982006470
 H         3.1037890178       -6.6420411743        5.5227482531
 H         1.6336055226       -5.8378091791        5.2219609542
 H         3.1099147118       -5.2625566266        4.4975099607
 Na        0.6972867031       -8.5690692141        0.4822944861
 Na       -5.4544689324        5.3519334874      -18.4356337552
