232

 C         1.0581315128       -4.4607736873        2.7212139553
 C         1.2798485771       -5.9801443803        2.5152515723
 O         0.8076851365       -6.5413778919        1.5497457029
 C         2.0607144607       -6.8106829304        3.5843714596
 C         1.2642447034       -8.1612313077        3.7706516894
 O         1.1795553348       -8.8634222739        2.8248237796
 C         0.4143008516       -8.4751236869        5.1072575215
 C        -0.6250108181       -9.4968161575        4.8137060194
 C        -0.0841764854      -10.7984833938        4.2761244622
 O         1.1159055422      -11.1248688283        4.3713945196
 C        -1.0146810578      -11.6787841465        3.3234748260
 C        -0.4008562343      -11.6133460372        1.8344816062
 O        -0.6952630494      -10.6270467994        1.2345252609
 C         0.4744071778      -12.6946543084        1.3828179189
 C         0.5879476881      -12.7890702991       -0.2020380604
 C         1.4592391132      -11.6925428535       -0.8858333017
 O         2.0240286282      -10.8591834883       -0.1726623481
 C         1.5684288679      -11.5544016056       -2.4336986674
 C         0.7341871764      -10.1836342541       -2.6183008793
 O        -0.4554853672      -10.2751218946       -2.6828052739
 C         1.3652215180       -8.8228230145       -2.7388234569
 C         0.2932151399       -7.7388510153       -3.0480962042
 C        -0.9781843110       -7.7672132383       -2.1369155621
 O        -0.9440074537       -8.0033045671       -0.9542890316
 C        -2.2984229996       -7.3136397304       -2.8061221970
 C        -2.0833979564       -5.8255338445       -3.3502758582
 O        -1.2129723654       -5.0929905091       -2.9183523223
 C        -3.0356953271       -5.2939025721       -4.4026391075
 C        -2.5685434266       -4.2914842253       -5.4975385600
 C        -1.6531891279       -4.9844287332       -6.5753125453
 O        -1.2354858063       -6.0914846533       -6.3213648181
 C        -1.0585882013       -4.2502536266       -7.8275467252
 C        -1.5362253015       -2.8042765380       -8.0412387084
 O        -1.7935249870       -2.1759436719       -7.0065715316
 C        -1.8192035434       -2.0128142952       -9.3375133575
 C        -3.3781419952       -1.4709188574       -9.3245473913
 C        -3.7855221015       -0.6357145460      -10.4895560858
 O        -2.9001606760       -0.4512805271      -11.3328678086
 C        -5.2372790125       -0.0995722569      -10.5577530998
 C        -4.9215704156        1.5084611998      -10.3622543565
 O        -5.0389809630        1.9759766244       -9.2858327593
 C        -4.3932835746        2.1836843905      -11.6357929973
 C        -3.2071614883        3.0911244655      -11.2770657031
 C        -2.6662693425        3.9238285787      -12.4181231074
 O        -3.1807670639        3.8917849969      -13.4990603457
 C        -1.4190743620        4.8903520484      -12.1418231590
 C        -1.6046340169        6.2256567490      -12.8338251828
 O        -1.3783583248        7.2391645905      -12.1656710817
 C        -1.9862508081        6.2231034672      -14.3117328652
 C        -3.5282425061        6.6631409636      -14.3395602412
 C        -3.9485707665        6.8936093433      -15.7568099075
 O        -4.2856118872        5.9199246863      -16.3900957587
 C        -4.1227408267        8.4076484948      -16.3494857964
 C        -3.7870310946        8.2739558238      -17.8591106746
 O        -4.5489732501        7.6767673667      -18.5565503159
 C        -2.6723248300        9.0841083632      -18.5978832636
 C        -2.1512127118        8.1944203581      -19.7315369481
 C        -1.4127627142        6.8990873732      -19.3001779229
 O        -0.7300595416        6.7947126848      -18.3246739416
 C        -1.5047664388        5.5892835046      -20.2127369601
 C        -2.4942094202        4.6408781305      -19.3876243059
 O        -3.5740931525        4.3629964194      -19.8063431333
 C        -1.9169378923        4.0384195997      -18.0354966811
 C        -2.7535637917        2.9885307049      -17.3929682126
 C        -3.4194439279        2.0353414137      -18.3588265913
 O        -2.8871495010        1.8004630100      -19.4205895823
 C        -4.7299620300        1.1179196940      -17.7060206810
 C        -5.7180477496        2.2373159789      -18.1902163279
 O        -5.6976751942        3.3337108819      -17.6087736555
 C        -6.4584439579        2.0284904927      -19.5269139211
 C        -6.8025850198        3.2730535973      -20.4317451179
 C        -7.8610762012        4.2512592209      -20.0132810743
 O        -7.5546837525        5.2779318020      -19.4070517436
 C        -9.3884672943        3.9997677142      -20.3385685535
 C        -9.6451802198        2.4580613801      -19.9469357580
 O        -8.9324916033        1.6379231618      -20.4524459032
 C       -10.7940320526        2.1861278757      -19.0355636239
 C       -11.2871543236        0.7223895409      -18.8791809801
 C       -12.3376973954        0.4190832489      -17.8234405487
 O       -13.4938745602        0.8599840611      -17.9821757095
 C       -11.8972349195       -0.4686003107      -16.5569067535
 C       -11.3310607252       -1.8465549921      -17.1139323373
 O       -10.1436170788       -2.1389851422      -17.0932728076
 C       -12.2888110000       -2.7904213209      -17.8434972192
 C       -10.9060869634        0.3848948547      -15.7168502545
 C       -13.1332122433       -0.6156573462      -15.7078915075
 C       -10.2079143693        5.0340336875      -19.6023209741
 C        -9.6983977862        4.0283263200      -21.8542220760
 C        -4.7933912876       -0.3150456784      -18.3005800265
 C        -4.6600227326        1.0711477133      -16.2210104299
 C        -2.1074025777        5.7901050310      -21.6117139110
 C        -0.0592275668        5.0592624209      -20.3430770471
 C        -5.6244492170        8.7285848555      -16.0815682159
 C        -3.1134006887        9.3325635927      -15.6760289628
 C        -1.1683479803        5.2764176745      -10.6259312693
 C        -0.1043975186        4.1872062436      -12.6671636801
 C        -5.8198020964       -0.5287517508      -11.9403838854
 C        -6.2124302545       -0.3954426723       -9.5243443217
 C         0.4463063054       -4.2540393191       -7.6232441657
 C        -1.3411235025       -5.1462195978       -9.0473354505
 C        -2.5541314661       -8.2188966292       -3.9922542215
 C        -3.5331915228       -7.2776488961       -1.7465251373
 C         3.0661824580      -11.5179680256       -2.9673970428
 C         0.8712903708      -12.6488819984       -3.2119530046
 C        -1.0357193207      -13.0945462910        3.9413763648
 C        -2.4240923541      -11.0120670634        3.3070441734
 C         3.4132707758       -7.2558804561        2.7560167755
 C         2.4841992030       -6.1090794140        4.8814932904
 H         0.5459915089       -4.1305723807        3.5650422135
 H         0.5012144145       -4.0708689335        1.8371066820
 H         2.0109949580       -3.9407422415        2.6210230318
 H        -0.0662378523       -7.5780314132        5.4607331064
 H         1.1024601332       -8.7884599346        5.9131737867
 H        -1.3290132472       -8.9987262281        4.0773066684
 H        -1.3142092009       -9.7723056039        5.6190328452
 H         0.3442598581      -13.7062471331        1.8000968232
 H         1.4424575390      -12.3573218390        1.6965904242
 H        -0.4028338642      -12.7017943309       -0.6481662045
 H         0.8714303590      -13.7814557527       -0.4699706797
 H         2.1087137278       -8.7037035691       -3.5559432184
 H         1.8447455370       -8.6185846981       -1.7962724900
 H        -0.0895260056       -7.9762741225       -4.0406137372
 H         0.7516571344       -6.7894690555       -2.9313717532
 H        -3.8660019502       -4.7873130203       -3.9002116846
 H        -3.4985088048       -6.1077647562       -4.9850755877
 H        -2.1818177320       -3.4160003881       -4.9163556154
 H        -3.4981009748       -4.0087044996       -5.9347944623
 H        -1.6927360411       -2.7690663329      -10.1917686330
 H        -1.0659781285       -1.1547534063       -9.3666473936
 H        -3.5774331860       -0.8649319897       -8.4171362595
 H        -4.0639475166       -2.2901142971       -9.2092294583
 H        -5.2673839578        2.7074531410      -12.0312573102
 H        -4.1015918695        1.4515551861      -12.3890200333
 H        -2.3966125197        2.4841434755      -10.8997802679
 H        -3.4866454951        3.7903746375      -10.4760062723
 H        -1.8467219726        5.2488295249      -14.6094719114
 H        -1.3441227927        6.9039865756      -14.8834215561
 H        -3.5718174259        7.5693435032      -13.7390756612
 H        -4.1077468142        5.9446984408      -13.7945772134
 H        -1.8845873763        9.3759503805      -17.9584464449
 H        -3.0566345623       10.0587432258      -18.9289958070
 H        -1.6055171006        8.8173084083      -20.4797799660
 H        -3.0164928661        7.8830972325      -20.2666372098
 H        -1.8862355713        4.9352617301      -17.3331219940
 H        -0.9202947288        3.5919423749      -18.2102925257
 H        -3.4713935095        3.2340965165      -16.5786914225
 H        -2.1327168562        2.2708640655      -16.8177933689
 H        -7.3705650230        1.4137372804      -19.3467960449
 H        -5.6771327369        1.4667579307      -20.1221367954
 H        -6.9932752289        2.9376065868      -21.4517088861
 H        -5.9307953743        3.8560110362      -20.4255558033
 H       -11.6352506610        2.8143057867      -19.3656156355
 H       -10.6011483980        2.6138404685      -18.0455062443
 H       -10.3525079681        0.0978414555      -18.6460350124
 H       -11.6067251054        0.4078012816      -19.7955765416
 H       -11.7698010542       -3.7039020121      -18.1687070487
 H       -12.7031294183       -2.3824160450      -18.7139593388
 H       -12.9444895768       -3.2242050872      -17.1536748496
 H       -10.1471884125        0.8988493431      -16.3416864730
 H       -10.4395632753       -0.1204589643      -14.9243773664
 H       -11.4214622409        1.1577126174      -15.0938034011
 H       -12.8737731818       -1.1619816997      -14.8159449380
 H       -13.9649885359       -1.1212889957      -16.2168390291
 H       -13.4824470376        0.3759992994      -15.4111437510
 H        -9.9286282759        4.9758741825      -18.5542149311
 H       -11.3447712255        4.9218589574      -19.6493868262
 H        -9.7804584250        6.0986075281      -19.8727705653
 H        -9.0096600875        3.2458091939      -22.2143049452
 H        -9.4930582311        4.9714898344      -22.2885161698
 H       -10.7175068148        3.8515976437      -22.0915160490
 H        -5.7783987210       -0.6234018615      -18.5032064637
 H        -4.4223474469       -1.0423901428      -17.5718389845
 H        -4.1726634419       -0.4462351902      -19.1696593575
 H        -3.6604617855        1.0095655307      -15.8364613214
 H        -5.1359292001        0.1203480307      -15.8596428287
 H        -5.0814375669        1.9745411919      -15.7400782498
 H        -1.6045024724        6.4857766872      -22.1618156486
 H        -3.0890440451        6.0732762338      -21.5225048242
 H        -2.1310609822        4.8161791498      -22.1450282676
 H         0.5006701175        5.6769273893      -21.0939848451
 H        -0.1563621920        4.0554402097      -20.8054039492
 H         0.4320530625        5.0134982774      -19.4258987446
 H        -5.6918512448        9.3406509344      -15.2028320568
 H        -6.2562442010        7.8252750697      -15.9761905914
 H        -6.1159178497        9.2785218266      -16.9150721818
 H        -2.1364126719        8.9087091553      -15.6244544600
 H        -3.4325847183        9.5500571398      -14.7378149993
 H        -3.0715104109       10.1905161792      -16.2819587303
 H        -1.3324544245        4.4683568005       -9.8507932312
 H        -1.8988293648        6.0725994138      -10.3647174472
 H        -0.1510957922        5.5954821403      -10.4704044552
 H        -0.1533622867        4.1087984497      -13.7531139239
 H         0.1703199793        3.2449654831      -12.1849989435
 H         0.7706817886        4.8456940855      -12.4898421118
 H        -5.1349214985       -0.5019378205      -12.8726823578
 H        -6.6881107416        0.0552144335      -12.2180138761
 H        -6.1720356396       -1.5763865656      -11.7552910503
 H        -6.9474386349        0.3948727088       -9.4153416822
 H        -5.6794556772       -0.4572020014       -8.5948617126
 H        -6.7179028159       -1.3217001099       -9.7540141796
 H         0.7809677118       -5.3133086883       -7.4851387189
 H         0.8360293653       -3.5588090618       -6.8616721931
 H         1.0239219479       -3.9990048531       -8.5742900794
 H        -1.2966001244       -6.1718203160       -8.6668960558
 H        -0.8179700888       -4.9131428004       -9.9874710754
 H        -2.3224475646       -4.8825626615       -9.4993585369
 H        -2.3077372885       -9.2953323890       -3.8417012161
 H        -1.9103666023       -7.9074588466       -4.8750534696
 H        -3.5745174616       -8.2433374812       -4.3048815793
 H        -4.5023863733       -7.1454370531       -2.2096427138
 H        -3.3942067895       -6.6055047595       -0.8711458457
 H        -3.7086080034       -8.2532143267       -1.2250625905
 H         3.6981928971      -11.0384731676       -2.2256234767
 H         3.1473848313      -11.1830662889       -4.0293317416
 H         3.2975364681      -12.5288136845       -2.9989349583
 H         0.9661162674      -12.5525837635       -4.2480290120
 H        -0.1903658004      -12.4962996010       -2.9214669469
 H         1.1225282904      -13.6732422792       -3.0444422527
 H        -1.2521699422      -13.0552330346        5.0234946183
 H        -0.0002128882      -13.4262150910        3.8267083185
 H        -1.7344073007      -13.8443506804        3.4782994457
 H        -3.2089012349      -11.4593229384        2.6585630987
 H        -2.2429955893      -10.0401239260        2.8038031691
 H        -2.8575748193      -10.7925767247        4.2885190625
 H         4.1081105577       -6.4240242607        2.4771102630
 H         3.0512427816       -7.8562241615        1.9061949450
 H         4.0128202760       -7.9207014987        3.4000756824
 H         3.2964464855       -6.7128545136        5.2882934365
 H         1.7351412533       -6.0776781808        5.6869045700
 H         2.8713521355       -5.1078906278        4.5346967116
 Na        0.5693710417       -8.8760122981        0.6436487948
 Na       -5.2373415352        5.4612191618      -18.4938645866
