232

 C         1.2156228436       -4.4880869250        2.6054591055
 C         1.3509466972       -5.9668701732        2.4500954989
 O         0.9498376360       -6.5093625103        1.4213935420
 C         2.1816706554       -6.8689796757        3.5933442716
 C         1.3111909317       -8.1033614846        3.7357155620
 O         1.2534566352       -9.0184803356        2.9139514523
 C         0.5555044849       -8.3761513075        4.9941621414
 C        -0.5726806775       -9.4114668176        4.7688691663
 C         0.0024016720      -10.6648589028        4.0369648768
 O         1.1205132555      -11.0983112982        4.2834811849
 C        -0.9979146699      -11.5689676739        3.2803396799
 C        -0.4227708245      -11.5849424960        1.8528154920
 O        -0.7694093370      -10.6919974122        1.0994287803
 C         0.6613570043      -12.6245665030        1.4313712999
 C         0.7380238777      -12.7293151132       -0.1442346817
 C         1.5058185907      -11.6722551281       -0.8533656403
 O         1.9885297202      -10.6667553297       -0.2397247310
 C         1.4976478343      -11.6421463590       -2.4124283619
 C         0.6997184865      -10.2477303978       -2.6175173334
 O        -0.4881967205      -10.3745645093       -2.5688819331
 C         1.3297737420       -8.8336019147       -2.6088042892
 C         0.2605031117       -7.8132798014       -2.9806304960
 C        -0.9835451458       -7.8267860760       -2.0668435614
 O        -0.9726675709       -8.1940083364       -0.8931733357
 C        -2.2757072509       -7.3169740384       -2.8646255199
 C        -2.0743733112       -5.7540777301       -3.4515064283
 O        -1.2104475956       -5.0898117958       -2.8822293597
 C        -3.1355262099       -5.3235547501       -4.5185318636
 C        -2.4907620860       -4.3410285002       -5.5649988884
 C        -1.6454529587       -5.0071453350       -6.6499199316
 O        -1.4285753511       -6.1988111696       -6.5648490585
 C        -1.0562304174       -4.2118838138       -7.8735456644
 C        -1.5629748424       -2.7206615738       -7.9724734530
 O        -1.7389365957       -2.1434124389       -6.8884279729
 C        -1.7758428124       -1.8997258282       -9.2618635411
 C        -3.2846073733       -1.6299138845       -9.2983787790
 C        -3.6537604491       -0.6703400339      -10.4494003870
 O        -2.9746364755       -0.3430967500      -11.4440309254
 C        -5.2077057345        0.0171355529      -10.4564524043
 C        -4.9061021372        1.5380735330      -10.4496645412
 O        -5.0351685106        2.0760297042       -9.3646706666
 C        -4.3584186437        2.3561076948      -11.6196998770
 C        -3.2265434969        3.2336846134      -11.0844389062
 C        -2.6815777714        3.9244159692      -12.2841110266
 O        -3.1694383538        3.8704576036      -13.3873027316
 C        -1.3911339434        4.8992448527      -12.0591417312
 C        -1.4805682177        6.2312878031      -12.7544234949
 O        -1.2684357375        7.2915226317      -12.2760491163
 C        -2.0279668504        6.2402161760      -14.2752711913
 C        -3.5107655292        6.6340087305      -14.2809745826
 C        -3.9556519972        6.8645950607      -15.6864198986
 O        -4.3992011563        5.9421560175      -16.3377478859
 C        -4.0109716906        8.4332470683      -16.2502494967
 C        -3.7807537242        8.2691299738      -17.8579374662
 O        -4.6277172223        7.6823459366      -18.5507639256
 C        -2.5989606630        8.8484383394      -18.5223539969
 C        -2.2071894980        8.0145995130      -19.7380346815
 C        -1.4730203630        6.7622398975      -19.3087321230
 O        -0.7857740726        6.8065089896      -18.2652244892
 C        -1.5262063233        5.5140217129      -20.2162492177
 C        -2.4503240791        4.5254679558      -19.4066113435
 O        -3.5884571296        4.3614929805      -19.8760935266
 C        -1.8743413226        3.9670965273      -18.1957769589
 C        -2.6937028301        2.9877725507      -17.3528739894
 C        -3.3283574164        1.8492459969      -18.2444641740
 O        -3.0233854525        1.7085606230      -19.4218225598
 C        -4.6372250273        1.2456675735      -17.6774721661
 C        -5.7148111529        2.2782934927      -18.1384089580
 O        -5.8364526671        3.3216403834      -17.5313543217
 C        -6.3660761061        1.9517544268      -19.4614147645
 C        -6.7610946302        3.2017873729      -20.3584154618
 C        -7.7967767874        4.2357909308      -19.9511690996
 O        -7.5741309470        5.2940448948      -19.4242226999
 C        -9.2991582908        3.9281391114      -20.3345483109
 C        -9.7309149531        2.4250072110      -20.0363762298
 O        -9.0044162010        1.5581042456      -20.3878079453
 C       -10.9564345779        2.1148797983      -19.1069184283
 C       -11.2264799786        0.6353762179      -18.8873541361
 C       -12.2982927579        0.4424151275      -17.7318203816
 O       -13.3872250910        0.9141956553      -17.7680260001
 C       -11.9450349504       -0.4489583778      -16.5332547789
 C       -11.4302048486       -1.7917920906      -17.2579961342
 O       -10.2522829268       -1.9684814728      -17.2948972782
 C       -12.3970792531       -2.6105328279      -18.1246357695
 C       -10.7697008385        0.1120188156      -15.7518055932
 C       -13.2430780485       -0.6890987677      -15.6679820151
 C       -10.2889556019        4.8793358767      -19.6272052009
 C        -9.6119168302        4.0450008481      -21.9478011048
 C        -4.8303737121       -0.1900815630      -18.2080477784
 C        -4.7292230264        1.1690640368      -16.1211301046
 C        -2.2048720568        5.8419451994      -21.6119155005
 C        -0.0205330199        5.1432142020      -20.4155839546
 C        -5.4922273840        8.6662601414      -16.1805122810
 C        -3.2723369515        9.4422287711      -15.4740070259
 C        -1.1796675371        5.1921244175      -10.5353368841
 C        -0.1468180493        4.3007596569      -12.7197674991
 C        -5.6958933969       -0.4449976947      -11.8894114808
 C        -6.2571441194       -0.2269277155       -9.3318273012
 C         0.4882472956       -4.0997757096       -7.5954956521
 C        -1.3566118977       -5.1218955188       -9.1612233649
 C        -2.6179929853       -8.3646211293       -3.9148999377
 C        -3.5259880917       -7.2211703383       -1.9993912609
 C         2.9928872977      -11.5791291762       -2.9820570337
 C         0.7566701787      -12.7761627557       -3.1826900557
 C        -0.8926314063      -12.9661494095        4.0707460474
 C        -2.5386105583      -11.1453920495        3.2286256829
 C         3.4252487592       -7.1432457363        2.7636760978
 C         2.3567066089       -6.0883096230        4.9074040179
 H         0.4575420681       -4.1821983582        3.3756886622
 H         0.9249336196       -3.9590940260        1.6629414676
 H         2.1957241055       -4.0499815608        2.8304096342
 H         0.2081208318       -7.4031592714        5.4416637510
 H         1.2522895608       -8.8005742272        5.7561824281
 H        -1.4978065292       -8.9507768074        4.2054703589
 H        -1.0728426983       -9.8328174548        5.6950550356
 H         0.4931976076      -13.5628000866        1.7541295236
 H         1.6068454726      -12.3245323083        1.8014521926
 H        -0.2743266123      -12.7255759449       -0.5505439794
 H         1.0864744155      -13.7981295736       -0.4671543812
 H         2.1616850716       -8.6412943407       -3.3081598065
 H         1.6692905190       -8.6227553135       -1.5632713044
 H        -0.0984648989       -7.9888736938       -4.0013836933
 H         0.7220686332       -6.8247811433       -2.7802338331
 H        -4.0390145864       -4.7826552493       -4.0251168796
 H        -3.5501365588       -6.1764802022       -5.1243245427
 H        -1.8311544207       -3.5495306791       -5.0155136728
 H        -3.3700118794       -3.8284135049       -5.9647053801
 H        -1.4663694931       -2.3716640360      -10.2096632613
 H        -1.3084047077       -0.9487054234       -9.0640886269
 H        -3.6071438766       -1.2424960387       -8.3389293500
 H        -3.8598045950       -2.5235576588       -9.4921030266
 H        -5.1175256169        2.8848185100      -11.9764149557
 H        -4.0118508023        1.7502366015      -12.4509510030
 H        -2.4368902527        2.6563065504      -10.6302297198
 H        -3.5592813567        4.0160525013      -10.3470344191
 H        -1.9428119455        5.2813079217      -14.7645850288
 H        -1.3341817700        6.9951848203      -14.7179218074
 H        -3.5983231980        7.5630623213      -13.7457125937
 H        -4.0031732223        5.9104816850      -13.6198158296
 H        -1.8169393293        8.9266878441      -17.8124254554
 H        -2.8227402688        9.8850586123      -18.7216912365
 H        -1.6859300261        8.5783738179      -20.4637675513
 H        -3.1097982037        7.7289639019      -20.2291823291
 H        -1.7279670224        4.8978004024      -17.6806057145
 H        -0.9016264934        3.4981615100      -18.4576935616
 H        -3.5758904909        3.3744318419      -16.8400618332
 H        -2.1454298144        2.5807752481      -16.4595286443
 H        -7.2747845356        1.5824313488      -19.1148063325
 H        -5.7383367308        1.2026809496      -20.0346350984
 H        -7.1343973752        2.8144960341      -21.3148836036
 H        -5.8495277286        3.7937536658      -20.5390243218
 H       -11.8777603327        2.5585505423      -19.4420549379
 H       -10.8499622615        2.6247481310      -18.1125130753
 H       -10.2873253232        0.1481782612      -18.7261003758
 H       -11.5982465499        0.2065102970      -19.8491570586
 H       -12.2072302478       -3.5982869916      -18.2547427823
 H       -12.3234048790       -2.1259266584      -19.1524420433
 H       -13.3831983713       -2.6304124618      -17.6977792252
 H        -9.9879427539        0.4442447591      -16.4171364482
 H       -10.4142242857       -0.5400111030      -15.0050679213
 H       -11.0218355820        0.9674729978      -15.1488186808
 H       -12.9740346052       -0.8929728674      -14.7149578057
 H       -13.8107862497       -1.5218669923      -16.0250393708
 H       -13.9321510478        0.1458122818      -15.7106718496
 H       -10.0189634469        5.0435261376      -18.5805496304
 H       -11.3149107866        4.4886559268      -19.6129099367
 H       -10.1639954288        5.8414675951      -20.0583372973
 H        -8.9397799509        3.4180529181      -22.4399680055
 H        -9.5600723658        5.0589838360      -22.3230162015
 H       -10.6583251586        3.8119752698      -22.1196499374
 H        -5.8083257927       -0.5623786762      -18.4127140654
 H        -4.4674629886       -0.8299344588      -17.4196958526
 H        -4.1994594090       -0.3703669605      -19.0646256936
 H        -3.7983688572        0.8716355350      -15.6141667020
 H        -5.3882020491        0.3101615441      -15.9296010569
 H        -5.1022623980        2.1255793565      -15.5820708708
 H        -1.8741678078        6.7373046033      -22.0636512291
 H        -3.2239926504        5.8901028311      -21.5104035099
 H        -2.0036340312        5.0415403050      -22.2323234129
 H         0.1971774067        5.3609220953      -21.4366387298
 H         0.1089576728        4.1086994107      -20.3527313074
 H         0.6388209430        5.6456635425      -19.7402347179
 H        -5.8856820111        8.9313069256      -15.1219149343
 H        -6.1774346773        7.8979348814      -16.6263347407
 H        -5.6420912184        9.5396656304      -16.8041904447
 H        -2.2667858272        9.2216901131      -15.2906831997
 H        -3.8371709581        9.6589542239      -14.5038548344
 H        -3.3519301820       10.3201543231      -16.1579842033
 H        -1.2821970930        4.3233175523       -9.8774846503
 H        -1.9289174109        5.9418702150      -10.1880231832
 H        -0.1653999278        5.5995180625      -10.3566246688
 H        -0.3054212063        4.1753581858      -13.8009347944
 H         0.2995650273        3.4336963819      -12.2352473918
 H         0.6220533846        5.0304932750      -12.6766819856
 H        -5.0805900444       -0.2176251744      -12.7812900691
 H        -6.6743086378        0.0665327330      -12.1419515508
 H        -5.9453894456       -1.5772375521      -11.7625909730
 H        -6.8982670112        0.7210020900       -9.2285449991
 H        -5.7611186584       -0.3244645157       -8.3763785932
 H        -6.9339151166       -1.0834918046       -9.5849314753
 H         0.8187007961       -5.0872520279       -7.2630980271
 H         0.6578753936       -3.3249550182       -6.8524635454
 H         1.2380874658       -3.9231849984       -8.4102961101
 H        -1.2072240678       -6.1888251222       -8.9467931135
 H        -0.7857852422       -4.6880754883       -9.9832278119
 H        -2.2941503019       -4.8967677253       -9.6160845396
 H        -2.5469835346       -9.3627013501       -3.5321766294
 H        -1.9546572966       -8.3573924220       -4.7819503096
 H        -3.6904001700       -8.3505632167       -4.2760584184
 H        -4.4588885983       -6.8093923547       -2.5051015312
 H        -3.3433811614       -6.7211329201       -0.9991345360
 H        -3.9321846167       -8.1864642568       -1.7277971993
 H         3.5595920097      -10.8785011650       -2.3700079245
 H         2.9599141870      -11.3562575732       -4.0364136925
 H         3.4093610870      -12.5447052443       -2.8583144992
 H         0.6485527877      -12.7274485748       -4.2284980045
 H        -0.1629349354      -12.8538193122       -2.7190204638
 H         1.2147566985      -13.7648269293       -3.0294528898
 H        -1.1191900908      -12.6450186813        5.1622606364
 H         0.1710481624      -13.2505083444        4.0573494480
 H        -1.5681336539      -13.8162760493        3.8303154853
 H        -3.0635970554      -11.9068622979        2.6112173877
 H        -2.6627595566      -10.2198403999        2.6508714239
 H        -3.0758031997      -10.9804705493        4.1915921598
 H         3.9025513976       -6.2050800844        2.3948853500
 H         3.1440892259       -7.8252734919        1.9564764318
 H         4.2099471014       -7.6336561348        3.4090289961
 H         2.8124735890       -6.7129788475        5.7579940649
 H         1.3080595508       -6.1024771687        5.2067955192
 H         2.7151971237       -5.0408153939        4.8035095049
 Na        0.5698820473       -9.0088189669        0.6389216305
 Na       -5.2872164627        5.5027054382      -18.5682918890
