232

 C         1.4070874280       -4.5051199249        2.5313932840
 C         1.4104610396       -5.9882252949        2.3115761695
 O         1.0664800635       -6.5661270072        1.3137324450
 C         2.0575692270       -6.8211607942        3.4604188270
 C         1.3998949031       -8.1388925054        3.6792433506
 O         1.3959239636       -8.9619663480        2.7433476834
 C         0.6796508413       -8.3288463653        5.0354966644
 C        -0.4851525935       -9.3347252922        4.7910799189
 C        -0.0211723442      -10.6509729553        4.0758161145
 O         1.0654349119      -11.0423401814        4.2523629136
 C        -0.9730676322      -11.5682849206        3.2402683169
 C        -0.4488754367      -11.6187266049        1.8398996154
 O        -0.9101988824      -10.8595476339        0.9429860611
 C         0.7837725293      -12.4740787186        1.4433694842
 C         0.8518346089      -12.7245838599       -0.0744511322
 C         1.5064530143      -11.5885961542       -0.8260937285
 O         2.0384097768      -10.5935660453       -0.3332839178
 C         1.4279096165      -11.6427838174       -2.3498129910
 C         0.5787035070      -10.3510182252       -2.6096560074
 O        -0.6468125662      -10.4940684692       -2.5776763772
 C         1.3028907713       -8.9982584544       -2.4671674693
 C         0.3421006462       -7.8213863643       -2.8962626027
 C        -1.0142374297       -7.8049415099       -2.1132250249
 O        -1.1356956965       -8.2272319814       -0.9792558988
 C        -2.3046384938       -7.3577116638       -2.8609360111
 C        -2.0571157389       -5.9382585806       -3.5072349690
 O        -1.3388677510       -5.1107777751       -3.0303018074
 C        -2.9978623270       -5.4350304573       -4.5595644186
 C        -2.3582322569       -4.3465784536       -5.5650455453
 C        -1.6904792784       -5.0934156864       -6.6804943152
 O        -1.6316320640       -6.3158723367       -6.8271397987
 C        -1.0429581328       -4.1565630802       -7.8718383467
 C        -1.5483199688       -2.6266575514       -7.8036443269
 O        -1.6679857444       -2.0649241115       -6.7709100664
 C        -1.7819815317       -1.9239759481       -9.2027890760
 C        -3.2807553904       -1.6662239314       -9.3798480189
 C        -3.7524677341       -0.6445383002      -10.4385610242
 O        -3.0252126848       -0.3420498338      -11.3185486622
 C        -5.1584743622        0.0893025041      -10.4243886880
 C        -4.8608390408        1.6425476643      -10.3896247750
 O        -5.0616144235        2.2857367866       -9.3507679113
 C        -4.3392877522        2.4039455480      -11.5785831890
 C        -3.2694333170        3.3555492235      -11.0081113218
 C        -2.5917093175        4.0843502159      -12.1384821932
 O        -3.0185077834        3.8583652275      -13.2716981732
 C        -1.3157567966        4.9680385979      -11.9955443305
 C        -1.5155581847        6.3671564825      -12.7620675078
 O        -1.1310638009        7.4264345216      -12.3237855570
 C        -2.0425932586        6.3399778140      -14.2675387007
 C        -3.4867117134        6.7049893698      -14.2580265586
 C        -4.0511085045        6.8908823761      -15.6811829274
 O        -4.4533594224        5.9237012415      -16.2933746180
 C        -4.1085859236        8.3943804142      -16.2687098383
 C        -3.7705901920        8.2618060946      -17.7836764379
 O        -4.6561271191        7.7203060923      -18.4908977975
 C        -2.4704131005        8.7673240283      -18.3988864095
 C        -2.2716842046        8.0186530393      -19.7080603468
 C        -1.5009212895        6.7555504510      -19.3389909181
 O        -0.9208298100        6.7098012858      -18.2612460411
 C        -1.5096858716        5.4906502973      -20.3628588689
 C        -2.3553652907        4.4575131355      -19.5294888721
 O        -3.5746353541        4.3915739690      -19.7530585049
 C        -1.6387606099        3.8260086363      -18.2808127148
 C        -2.6708207689        3.0520280922      -17.4221681737
 C        -3.3729483658        1.8338732601      -18.1285906620
 O        -3.0956769930        1.5149457027      -19.2514874637
 C        -4.5903273789        1.2372005219      -17.5208986401
 C        -5.6829393253        2.3493527060      -18.1782138757
 O        -5.9651202418        3.2976796088      -17.4991636358
 C        -6.3781842819        2.0136259832      -19.4699103131
 C        -6.7155683007        3.1673653044      -20.3859549492
 C        -7.8636180883        4.1120825077      -19.9818470021
 O        -7.5192989655        5.1457577952      -19.4328493109
 C        -9.3839285725        3.8241145188      -20.3149858067
 C        -9.7927128666        2.3389762159      -19.9554157425
 O        -9.1739970580        1.3339222299      -20.4030295782
 C       -11.0767972820        2.1072603601      -19.1926004896
 C       -11.2459778382        0.6383914354      -18.7928133613
 C       -12.2914827908        0.5059970555      -17.7112152360
 O       -13.2982357322        1.1517649448      -17.7485736588
 C       -11.9289983513       -0.5943644270      -16.5296474854
 C       -11.5091926705       -1.7122688132      -17.4390360601
 O       -10.3104195715       -1.9420715456      -17.5166069787
 C       -12.5239618206       -2.3597265014      -18.3523842138
 C       -10.7029810179       -0.1829606929      -15.7382247773
 C       -13.2066036517       -0.8267199578      -15.6265036520
 C       -10.3717065625        4.8924373035      -19.6669608202
 C        -9.4005262364        4.0621070749      -21.8667364121
 C        -4.8934743905       -0.1130016233      -18.1985371515
 C        -4.7335022054        1.3439386950      -15.9169575890
 C        -2.1902436732        5.8834585470      -21.6271941277
 C        -0.0247429271        5.0407535233      -20.5370598210
 C        -5.7118263532        8.6974629468      -16.2449671312
 C        -3.3331708976        9.4417735867      -15.4265100831
 C        -1.0983358793        5.0558402408      -10.4604067292
 C        -0.1404225861        4.2433694887      -12.6880286009
 C        -5.7366380399       -0.3265993397      -11.8266629561
 C        -6.0580929549       -0.3110656341       -9.2678363527
 C         0.4607187316       -4.0104683405       -7.6130993346
 C        -1.2926359066       -4.9136332909       -9.2177772783
 C        -2.6263772598       -8.4601418510       -3.9604820818
 C        -3.5204695345       -7.1432305597       -2.0188347523
 C         2.9324733775      -11.5415505526       -2.9614928826
 C         0.7135249200      -12.8068886981       -2.9721432722
 C        -0.8474520315      -12.8781663103        4.1088057227
 C        -2.4607703482      -11.3435048225        3.1789040984
 C         3.5819881110       -7.0466279946        2.8830792374
 C         2.2534579427       -6.0077590301        4.7850326728
 H         0.4750065930       -4.3626272496        3.2053080483
 H         1.2891420264       -3.8354418937        1.6995973046
 H         2.2913512560       -4.1119516179        3.0811109335
 H         0.3172312192       -7.2867563460        5.2679069659
 H         1.1991652318       -8.6671401528        5.9589599634
 H        -1.2605089666       -8.9226638132        4.1742516316
 H        -1.0736551114       -9.6070761103        5.7184503290
 H         0.6099359675      -13.5056483344        1.7514923862
 H         1.7427216839      -12.1585279516        1.8339957096
 H        -0.1313233908      -13.1226639966       -0.4472900323
 H         1.5056400303      -13.6430710197       -0.2620675522
 H         2.0898875370       -8.9604798001       -3.2113277566
 H         1.7533354204       -8.8397978674       -1.4495381660
 H         0.0963198792       -7.9394728810       -3.9688820598
 H         0.8163936266       -6.8407743156       -2.5936817931
 H        -3.7371269410       -4.8852595799       -3.8987605895
 H        -3.6022551029       -6.1069725166       -5.2242865512
 H        -1.5190623570       -3.7419962157       -5.2032700467
 H        -3.2663187301       -3.6853932975       -5.8263030656
 H        -1.4326666539       -2.4174725984      -10.0257470911
 H        -1.3326368106       -0.9962698840       -9.0404040356
 H        -3.6927635666       -1.5334357407       -8.3947484746
 H        -3.7468376494       -2.5815088646       -9.8628249972
 H        -5.2229301732        2.9613519227      -12.0528441869
 H        -4.0076743650        1.7483469285      -12.3261859498
 H        -2.4914272003        2.7732968836      -10.4449781548
 H        -3.7596454627        4.0336049653      -10.2997360989
 H        -1.9493662077        5.2499979953      -14.7020108014
 H        -1.2946629397        7.0024313047      -14.7108027430
 H        -3.6969907624        7.5576926453      -13.5803759147
 H        -3.8280695624        5.8251826874      -13.6617965629
 H        -1.5878373162        8.6624152876      -17.7104369248
 H        -2.5509619321        9.8347589575      -18.5034423340
 H        -1.6251632206        8.5519687436      -20.3499012175
 H        -3.1957990107        7.9248800837      -20.3057862492
 H        -1.1995716743        4.6512373384      -17.7934978496
 H        -0.9036640790        3.1265448410      -18.6431973740
 H        -3.5252449597        3.6029716814      -17.0341223591
 H        -2.2895872218        2.6589927509      -16.4714930505
 H        -7.2698153044        1.5250218447      -19.1097464134
 H        -5.7155658885        1.3880926443      -19.9940691223
 H        -6.9517675715        2.7243922266      -21.3669875056
 H        -5.7700359551        3.8018499371      -20.4841649497
 H       -11.9202574671        2.4533851271      -19.8006341206
 H       -11.1965877491        2.7375857371      -18.3020038987
 H       -10.3002197040        0.2781346912      -18.5512914081
 H       -11.5580532443       -0.0222720510      -19.7070764825
 H       -12.6830330683       -3.4526758193      -18.1743668963
 H       -12.0693107850       -2.2627615796      -19.3488710973
 H       -13.5818117785       -1.9997960352      -18.2477407216
 H        -9.8676565216        0.0117285083      -16.3398214649
 H       -10.4741823629       -0.8773876470      -14.9019498629
 H       -10.8352590267        0.7253307370      -15.2414211820
 H       -12.9668613079       -0.7187520851      -14.5390151943
 H       -13.7164141517       -1.7269485669      -15.7358917278
 H       -13.9120176969       -0.1135425767      -15.9279406997
 H       -10.1875452016        4.9547270292      -18.5962687505
 H       -11.3518676685        4.6108000170      -19.7197663140
 H       -10.1179831319        5.7977339151      -20.0486876655
 H        -8.6089263007        3.5508879395      -22.3798051304
 H        -9.2649230866        5.1487852949      -22.0091303426
 H       -10.4079659419        3.9671586202      -22.2675557896
 H        -5.9453752673       -0.4887037863      -18.1764015908
 H        -4.3377851279       -0.9299040200      -17.7523066032
 H        -4.6004174521        0.0015420275      -19.2519515484
 H        -3.9729900166        0.6927166489      -15.3483985662
 H        -5.6894619745        0.9859199561      -15.5514516600
 H        -4.5780418051        2.3669192019      -15.5939266387
 H        -1.8898513461        6.8628584040      -22.0486102270
 H        -3.3437980482        5.8820319032      -21.5117120844
 H        -1.9411840356        5.1339232982      -22.3150279890
 H         0.1725194969        4.8826931167      -21.5329487592
 H         0.1523096286        4.1052216611      -20.0839604856
 H         0.6449546939        5.7927851064      -20.0731546931
 H        -6.1691526167        8.3597975397      -15.2542418563
 H        -6.4339550347        8.4822930420      -17.0208524784
 H        -5.6491291141        9.8099081450      -16.1820505571
 H        -2.1989421641        9.2581637011      -15.2801133128
 H        -3.8880324547        9.4832754378      -14.4199559900
 H        -3.5116119181       10.4028898613      -15.9868467259
 H        -0.8226037862        4.0937727170      -10.0871911409
 H        -1.9420404311        5.3899143279       -9.8873629396
 H        -0.2536017294        5.7892496041      -10.2721787229
 H        -0.3904708936        3.9295310277      -13.6833241619
 H         0.1907885458        3.4308456712      -12.0716637969
 H         0.7290934204        4.8638195181      -12.8122044372
 H        -5.2240067439        0.0919813469      -12.6687504990
 H        -6.7749925648        0.1553321832      -11.9710499948
 H        -5.8258242964       -1.3963994638      -11.8861425044
 H        -6.8159658537        0.4901379476       -9.2606673264
 H        -5.5492644460       -0.2144407229       -8.2562598744
 H        -6.6151034600       -1.2688336931       -9.4568790843
 H         0.9809658413       -4.9124933097       -7.3833544214
 H         0.4937158338       -3.2641647148       -6.8201176158
 H         1.0639222301       -3.6446365303       -8.3721227787
 H        -0.9172943023       -5.9112191394       -9.0850050116
 H        -0.8088900169       -4.3738312754      -10.0146380281
 H        -2.3251002372       -4.9235687132       -9.5508993823
 H        -2.7368427774       -9.4090603410       -3.4585912080
 H        -1.8915544339       -8.6220900773       -4.6935989287
 H        -3.6176695466       -8.3841293042       -4.4440837497
 H        -4.3332074002       -6.5715410823       -2.5054272950
 H        -3.2655861659       -6.6739083811       -1.0717694911
 H        -4.1007361853       -8.0576483148       -1.8043108896
 H         3.3687506530      -10.6474936956       -2.5776173037
 H         2.8441350731      -11.4996506086       -4.0011851286
 H         3.5679568491      -12.4273863382       -2.6054844383
 H         0.5286825031      -12.8363499591       -4.0689702517
 H        -0.1885512461      -13.0614422590       -2.4651250426
 H         1.3286927965      -13.6867395627       -2.8269735470
 H        -1.2886252945      -12.6018147490        5.0649463596
 H         0.2339001559      -13.1392783250        4.2725771525
 H        -1.4166754942      -13.7393824673        3.7424767393
 H        -2.9284854404      -12.2412148184        2.7893716201
 H        -2.7596977048      -10.5082098343        2.5370329744
 H        -2.8697796399      -11.1018133116        4.1674880493
 H         4.0054708746       -6.1023203558        2.5611858657
 H         3.6648268493       -7.7971454031        2.0725548779
 H         4.1715149642       -7.3488411917        3.7530277019
 H         2.2730677002       -6.7803302342        5.5504209517
 H         1.3007058422       -5.5069090568        5.0588365221
 H         3.0847079490       -5.3138878242        4.7774026058
 Na        0.6183382296       -8.9975839711        0.6221576263
 Na       -5.4249542950        5.4807102193      -18.6036233577
