232

 C         1.5272016581       -4.3974219361        2.0082745408
 C         1.7457704638       -5.9130203951        2.0910013109
 O         1.2224974742       -6.6257658218        1.2149045510
 C         2.3549285533       -6.6711116867        3.3529915539
 C         1.4585776596       -8.0086353978        3.4736260795
 O         1.5265158124       -8.8163257987        2.5707131103
 C         0.6944717020       -8.4177489279        4.8404048919
 C        -0.5207481510       -9.3211470117        4.5681271885
 C        -0.0660616269      -10.7079975732        4.0508914280
 O         1.0847289644      -11.0368063811        4.3863066436
 C        -0.9668578192      -11.7647104752        3.3059758311
 C        -0.3185235401      -11.7066002823        1.8710443302
 O        -0.9916768191      -11.1838063005        1.0290668273
 C         0.9732068849      -12.3767260696        1.6853675990
 C         1.2510667185      -12.8016527961        0.2520198910
 C         1.5881443210      -11.6474216416       -0.6749766611
 O         2.1708585587      -10.6816881764       -0.1521417211
 C         1.3530623359      -11.6400041034       -2.2328294014
 C         0.3488307084      -10.3992703426       -2.6471908634
 O        -0.8077614578      -10.5791086339       -2.8791980592
 C         1.0986849878       -9.0242901553       -2.7104545060
 C         0.2236933102       -7.7693459756       -2.7763839848
 C        -1.1055401677       -7.8360264377       -2.0670189395
 O        -1.2001506761       -8.1823212268       -0.8962007092
 C        -2.4007343423       -7.4924771186       -2.8643095104
 C        -2.0981406985       -6.0898103993       -3.6032376742
 O        -1.1516806210       -5.4080571104       -3.1894853294
 C        -2.9329886921       -5.5790412047       -4.7163394095
 C        -2.2028918311       -4.5022006017       -5.5237956099
 C        -1.7556912210       -4.9924396571       -6.9991642659
 O        -1.9542451615       -6.1347563764       -7.3266304911
 C        -0.9883144270       -4.0335332534       -7.9559726547
 C        -1.5993178778       -2.5547062292       -7.8023832434
 O        -1.5597240683       -1.9725679669       -6.6930426235
 C        -1.9837257423       -1.7002094325       -9.0424798994
 C        -3.4938696516       -1.7307054555       -9.3592945803
 C        -3.6723858015       -0.5875223490      -10.3762579857
 O        -2.7877854338       -0.2870808037      -11.2074231725
 C        -5.0628323719        0.1643292031      -10.3427502929
 C        -4.8224662983        1.6786550000      -10.0879207891
 O        -5.3119821345        2.2729107447       -9.1615451835
 C        -4.1404193359        2.4441011943      -11.3257936761
 C        -3.2990585285        3.6627959336      -11.0052005329
 C        -2.4863500915        4.1726622711      -12.2137016955
 O        -2.7698673776        3.9313639244      -13.3614715267
 C        -1.1814357286        5.0269925959      -11.9452182739
 C        -1.4290620258        6.4204946284      -12.6924957304
 O        -0.9895435802        7.3836691418      -12.1817576550
 C        -2.0215069129        6.5180773941      -14.1198934919
 C        -3.5862610378        6.7521060326      -14.1498964432
 C        -4.1801124781        6.8913365295      -15.6309272835
 O        -4.5409662672        5.9159272241      -16.3038984371
 C        -4.3835752631        8.3818472786      -16.2310051382
 C        -3.9995366441        8.2178925866      -17.8458965093
 O        -4.6857774441        7.6094927861      -18.6120649574
 C        -2.6469743253        8.7674862295      -18.2414006189
 C        -2.0165478647        8.1133795531      -19.4959641914
 C        -1.4717782839        6.6224817246      -19.2831347660
 O        -0.9542722457        6.3866805497      -18.1946586643
 C        -1.4724815758        5.5151186445      -20.4372194306
 C        -2.2906504236        4.4609991537      -19.5464539267
 O        -3.4926136879        4.6057254042      -19.4998205105
 C        -1.6239325819        3.4686904344      -18.6526876896
 C        -2.5561249107        3.0441009574      -17.5136697626
 C        -3.4153419379        1.8191337261      -18.0663306094
 O        -2.9211235485        1.1660301852      -18.9618107575
 C        -4.7694004000        1.4188890945      -17.4852445644
 C        -5.7945140778        2.3766615564      -18.0540748175
 O        -6.1769965734        3.4476046972      -17.5862290276
 C        -6.3524585923        1.9169462877      -19.4846058751
 C        -6.7868772868        3.0750724699      -20.3686202029
 C        -7.9142213735        3.9907595068      -19.8888521350
 O        -7.6231495308        4.9576403535      -19.2203062796
 C        -9.3539196833        3.7779691399      -20.4251003798
 C        -9.8723328772        2.2792741986      -20.1094283871
 O        -9.2537561128        1.3629760433      -20.5144323553
 C       -11.2396244444        2.1932878753      -19.4162420967
 C       -11.1660749818        0.8730774219      -18.6110695517
 C       -12.2185802539        0.6513151484      -17.4847525335
 O       -13.1641885081        1.3518021874      -17.2562100684
 C       -11.9416159005       -0.7156438367      -16.6936455729
 C       -11.6387788870       -1.7560315734      -17.8024983916
 O       -10.5593605139       -2.2646496972      -17.9428648401
 C       -12.8019870483       -2.1926951741      -18.6673550040
 C       -10.7620253206       -0.3888451171      -15.6945902669
 C       -13.1852577049       -1.0652232920      -15.8389380908
 C       -10.1569231639        4.8489210334      -19.6792289339
 C        -9.2919457562        3.9286318935      -22.0188762138
 C        -5.0350805931       -0.1411807247      -17.6427373593
 C        -4.7483049656        1.5517092066      -15.8731252014
 C        -2.2054112496        5.8131450453      -21.7999029853
 C        -0.0452982118        5.0254296808      -20.7900435580
 C        -5.9123821218        8.7933801511      -16.0398915369
 C        -3.4662800610        9.4540501334      -15.5256899753
 C        -0.7440993845        5.4478731296      -10.5513125990
 C        -0.0411048566        4.1889803130      -12.6499208698
 C        -5.9720404975       -0.0358075341      -11.5729364217
 C        -5.9721822742       -0.4273762344       -9.0750405343
 C         0.5326974029       -4.0210055947       -7.4633652896
 C        -1.1564447993       -4.5939103879       -9.4285316380
 C        -2.6722925737       -8.4992147627       -3.9940153154
 C        -3.5188279557       -7.3038025971       -1.8602983146
 C         2.6605760634      -11.4549998641       -2.9372663855
 C         0.7400212208      -13.0079705842       -2.6984131971
 C        -0.8036499171      -13.1841429318        3.8487940894
 C        -2.4302595272      -11.1990965177        3.3422608674
 C         3.7773881608       -7.0147769119        3.1569437903
 C         2.2104464192       -5.7507974648        4.6191122141
 H         0.6747681832       -4.0443901407        2.4861396971
 H         1.4447835208       -4.1338229865        0.9478700845
 H         2.3628898111       -3.8372382766        2.3398273717
 H         0.3338792009       -7.5270751890        5.2894231966
 H         1.3337726325       -8.8346644088        5.5912216914
 H        -1.1264526467       -8.8089314617        3.7819270296
 H        -1.1461633602       -9.4170069891        5.3885005822
 H         1.2122500604      -13.1797367950        2.3965462751
 H         1.6953068591      -11.4928014555        1.8616703491
 H         0.3944756863      -13.3108716134       -0.1012209165
 H         2.0054569568      -13.5313194853        0.1149561485
 H         1.8042126688       -8.9989552542       -3.5514992019
 H         1.6840640687       -8.9349300743       -1.8302855008
 H        -0.0909631176       -7.6411659848       -3.8160673530
 H         0.7488525067       -6.8907739211       -2.4490898793
 H        -3.8920901845       -5.2604919289       -4.4232465362
 H        -3.0657486000       -6.3955602532       -5.4007178932
 H        -1.3729099425       -4.0764528159       -4.9468755284
 H        -2.9216772387       -3.7719346573       -5.5852533222
 H        -1.5319585877       -2.2173705575       -9.9728443132
 H        -1.6410064088       -0.6274345164       -8.9186355343
 H        -3.9791854704       -1.3337087296       -8.4297717779
 H        -3.9288857118       -2.6613395239       -9.7320288519
 H        -4.8731108402        2.7019866758      -12.0588123863
 H        -3.5238938575        1.6138227999      -11.8783245668
 H        -2.6103649896        3.3621426555      -10.2255579363
 H        -3.9413074705        4.4621305792      -10.5928635438
 H        -1.7155905869        5.6507855233      -14.5822982474
 H        -1.4866619879        7.3783387472      -14.5621365411
 H        -3.9322259938        7.5657215432      -13.4989120081
 H        -3.9969707614        5.8313304765      -13.7266908666
 H        -2.0072038791        8.6430828372      -17.3703700017
 H        -2.6496525226        9.9055295404      -18.3576280403
 H        -1.1965346140        8.7694468926      -19.9743506790
 H        -2.7940483980        8.1150968638      -20.2784407013
 H        -0.7657871629        4.0495301158      -18.1911966780
 H        -1.2532019223        2.6436653652      -19.3089944737
 H        -3.1041929658        3.9379108985      -17.1540832839
 H        -1.9565095238        2.7292927101      -16.6364979394
 H        -7.1237667501        1.1682800428      -19.2422685977
 H        -5.4339797282        1.4511002641      -19.9993337732
 H        -7.0916091386        2.5907105385      -21.3000416376
 H        -5.9126329255        3.6513763295      -20.5592980221
 H       -12.0550264423        2.1450460730      -20.1452384076
 H       -11.5356130599        3.0528291725      -18.8223950212
 H       -10.1075816553        0.8626354555      -18.1647863541
 H       -11.1073796087        0.0593904586      -19.2530951318
 H       -13.5648850628       -2.4822368536      -18.0132660964
 H       -12.4930533474       -3.0709448469      -19.2833589246
 H       -13.3220324909       -1.4367854955      -19.2680317100
 H        -9.8120118452       -0.1019894310      -16.2402705234
 H       -10.5332488697       -1.1926323642      -15.0262578228
 H       -10.8723440624        0.5677113512      -15.0952269091
 H       -13.1658480482       -0.5236128680      -14.9247684628
 H       -13.2467751075       -2.1680380762      -15.5233206073
 H       -14.1826010001       -0.9443560351      -16.4036735326
 H       -10.4570280103        4.6238571852      -18.6477583771
 H       -11.1794881529        4.8179264183      -20.1830079618
 H        -9.6314635251        5.8322009333      -19.8139480236
 H        -8.9052641762        2.9874898064      -22.4617041215
 H        -8.6458974578        4.7493273741      -22.3931300325
 H       -10.3186417275        4.2055722767      -22.3302332833
 H        -5.9069964058       -0.4439506421      -17.0700432561
 H        -4.1972833430       -0.7513591332      -17.2371333700
 H        -5.3348679006       -0.4200115067      -18.6573721458
 H        -4.4851905147        0.6439140929      -15.4829880308
 H        -5.7004223814        1.8313474357      -15.4340086495
 H        -4.1089202730        2.3518984456      -15.4820594701
 H        -1.5807883187        6.5760718824      -22.3812622680
 H        -3.1805375455        6.2798137033      -21.6664806732
 H        -2.2763662613        4.8994865985      -22.4394883747
 H        -0.2784850041        4.1583416227      -21.5096502997
 H         0.5926844077        4.6214262760      -19.9579666781
 H         0.4671762320        5.8353567387      -21.3188587719
 H        -6.4472166286        7.8976074107      -15.8704923488
 H        -6.3587873233        9.0317657436      -17.0007437809
 H        -6.1574099534        9.6044267243      -15.3993998181
 H        -2.5389353947        9.0559144421      -15.4349351301
 H        -3.9065622756        9.5306383720      -14.5504631539
 H        -3.4148207667       10.4180712928      -15.9901276522
 H        -0.0558884646        4.6822171289      -10.1827998902
 H        -1.5739150107        5.3697562716       -9.8324561346
 H        -0.4401277398        6.4551334499      -10.4932140599
 H        -0.1683041613        3.9994411168      -13.7239022715
 H        -0.0168538623        3.2166983403      -12.1332028475
 H         0.9509240525        4.6059109043      -12.5235564985
 H        -5.5273227423        0.3865882603      -12.4366523358
 H        -6.8298037426        0.5278073588      -11.4802811691
 H        -6.3278609074       -1.0519455733      -11.7760089442
 H        -7.0251961825       -0.1641849338       -9.2404763333
 H        -5.6682048566        0.0415146378       -8.2066615001
 H        -5.8815496692       -1.4731758435       -8.9868348731
 H         1.0788977993       -4.8278428093       -7.9184251876
 H         0.7011348563       -3.8851809022       -6.4358040355
 H         1.0529983321       -3.1553206610       -7.9492361421
 H        -0.9498931742       -5.6970773727       -9.3627503362
 H        -0.4634164291       -4.1355499004      -10.2376400588
 H        -2.2567548773       -4.5093161299       -9.6536320816
 H        -2.9840710415       -9.4827184842       -3.7175888038
 H        -1.8210956160       -8.6237332429       -4.6825274612
 H        -3.5215953642       -8.1723526026       -4.5857576202
 H        -4.4840528776       -7.0377314120       -2.2447767551
 H        -3.2873631388       -6.4431990695       -1.2371554491
 H        -3.6983721667       -8.1841505268       -1.3173483796
 H         3.2160105852      -10.5375917906       -2.5834908099
 H         2.4196282031      -11.3185864509       -4.0439516224
 H         3.2250166948      -12.3057027503       -2.7195534567
 H         0.8553738091      -13.0177237659       -3.7810307943
 H        -0.3536803289      -13.1124362437       -2.5704098095
 H         1.1437648966      -14.0157765431       -2.3728381029
 H        -1.4817810173      -13.4197091743        4.6608928163
 H         0.1547562704      -13.3836874088        4.1639528396
 H        -1.0630736562      -13.8049974544        3.0325037946
 H        -3.1448408381      -11.9624185081        3.0447265291
 H        -2.5523056827      -10.2885593226        2.7763828181
 H        -2.6402028883      -10.9025952378        4.3636229073
 H         4.3820307512       -6.1699343181        2.8492395248
 H         3.7630013771       -7.6517645789        2.3090939846
 H         4.1659231725       -7.5648873702        3.9981583953
 H         2.5647179438       -6.3165595104        5.4912871923
 H         1.2231946263       -5.4380438104        4.7691747623
 H         2.7768336143       -4.8748550579        4.4157872217
 Na        0.5008040349       -8.8034388240        0.4502704840
 Na       -5.5163845291        5.4713435973      -18.4247916678
