232

 C         2.1890206760       -4.4519009066        1.5328486043
 C         1.8899391291       -5.9585233352        1.6754547692
 O         1.5785714718       -6.6826296371        0.7330119471
 C         2.2393673614       -6.4967118611        3.1022114556
 C         1.5188616097       -7.9420608367        3.3018716480
 O         1.6501518014       -8.7894968525        2.4194330558
 C         0.6490540408       -8.3068300212        4.5341364401
 C        -0.4160053626       -9.4159277855        4.2492098762
 C         0.0816789917      -10.8887402358        4.2389603158
 O         1.0631290147      -11.3651508824        4.8472773100
 C        -0.8011869113      -11.8389023119        3.3564612172
 C        -0.1249000059      -11.7381531988        1.9399249431
 O        -0.6432971109      -10.9061507272        1.1814422481
 C         1.2190489650      -12.3168936473        1.8568816546
 C         1.5865600950      -12.6547788928        0.3624551663
 C         1.5319367548      -11.4146172617       -0.6364827540
 O         1.9225015656      -10.3512388560       -0.2487677605
 C         1.3065802158      -11.7378672104       -2.1236336088
 C         0.4770156817      -10.5221765131       -2.6599579884
 O        -0.6275101641      -10.7962019743       -3.0437138474
 C         1.0435138305       -9.1293710353       -2.6196125947
 C         0.0321362501       -8.0866265604       -3.0367998350
 C        -1.2312832743       -7.9864285731       -2.1427957256
 O        -1.2223294768       -8.2093718038       -0.9258501147
 C        -2.4802312492       -7.6185831654       -2.9069546891
 C        -2.1049195165       -6.2959338816       -3.7730456257
 O        -1.2167200788       -5.5881659130       -3.2644558941
 C        -2.8538810779       -5.9432926263       -5.0419191448
 C        -2.1366452838       -4.7102062439       -5.7521961315
 C        -1.9495636871       -4.8568634531       -7.2611411262
 O        -2.5631643988       -5.7126746673       -7.8358804992
 C        -0.8798276777       -3.8575589905       -8.0073902236
 C        -1.3662943742       -2.3565104898       -7.8228544194
 O        -1.4622723239       -1.9496071051       -6.6317399552
 C        -1.7723994051       -1.4305554924       -8.9075458810
 C        -3.3884677466       -1.3741329384       -9.0671201903
 C        -3.8028537835       -0.4147005278      -10.1912225553
 O        -3.1080918298       -0.3680255006      -11.2221204041
 C        -5.1368371108        0.3746604167      -10.0761226135
 C        -4.7838293075        1.9089941014       -9.9188105198
 O        -5.1044673855        2.6358236483       -9.0151666342
 C        -3.8331261803        2.4431023316      -11.0161664141
 C        -3.2447999045        3.8211679596      -10.8193252638
 C        -2.4802740133        4.2366561020      -12.0895865920
 O        -2.7605794321        3.7369924208      -13.1420908037
 C        -1.2155554165        5.2602835435      -11.9938177822
 C        -1.4663847942        6.6136118308      -12.7409031930
 O        -1.1234970885        7.6606094426      -12.2690029555
 C        -1.9746703177        6.3826924734      -14.1862237707
 C        -3.4280362068        6.9384840960      -14.1060475100
 C        -4.1024936953        6.8669126516      -15.5636928570
 O        -4.5370611114        5.7791381076      -15.8659327605
 C        -4.4241614547        8.2095059532      -16.3656524361
 C        -3.9121006205        8.1202678918      -17.7717303019
 O        -4.5685711148        7.6602284021      -18.6611844647
 C        -2.5228154535        8.6950707226      -18.0107879778
 C        -2.0667644744        8.0979924645      -19.3896264374
 C        -1.4458237672        6.6921985262      -19.2043079326
 O        -0.7490457674        6.4310680915      -18.2650554941
 C        -1.6366795889        5.5765049212      -20.3013082384
 C        -2.5115577436        4.4588025898      -19.5522830100
 O        -3.7070967574        4.6514264528      -19.4670009377
 C        -1.7951488173        3.2341947461      -18.9288345267
 C        -2.5145753800        2.6423302734      -17.6932372483
 C        -3.4605435411        1.4376861474      -17.9894254386
 O        -3.0190947886        0.5036971628      -18.6076308265
 C        -4.9286494228        1.3934471186      -17.2039542936
 C        -5.9016659156        2.3110540911      -17.9994160126
 O        -6.2670034598        3.3565986533      -17.4838841596
 C        -6.3133958481        1.9076887939      -19.3716616558
 C        -6.7922790599        3.0157704300      -20.3134802941
 C        -7.9282041068        3.9632066823      -19.9297630754
 O        -7.6977607895        4.8719930789      -19.1452011691
 C        -9.3691148869        3.9297565538      -20.5892481309
 C        -9.9504110539        2.4411955358      -20.2183364122
 O        -9.3025628133        1.5051724672      -20.5220954052
 C       -11.1789631162        2.1641504049      -19.3616951259
 C       -10.7970293018        1.0973484297      -18.2643424542
 C       -12.0123728320        0.7079522136      -17.3225142289
 O       -12.7130969609        1.5424413880      -16.7934096884
 C       -12.1329914068       -0.8500987267      -16.8910930785
 C       -12.0768675434       -1.9948301471      -18.1247845502
 O       -11.0247675468       -2.5625100215      -18.2190366181
 C       -13.0700403574       -2.2258619578      -19.2408780661
 C       -10.8784785840       -1.2259133307      -16.0203780366
 C       -13.3138376790       -1.0388125774      -15.9803646626
 C       -10.2097932330        5.1774894958      -20.1073516019
 C        -9.2475578150        3.9942640436      -22.1941134639
 C        -5.2975550164       -0.1165542119      -16.8579417033
 C        -4.5879023662        2.0215692923      -15.8589056014
 C        -2.3769348389        6.1713327336      -21.5483129285
 C        -0.2533587282        5.0181634455      -20.7450545506
 C        -6.0168950046        8.3846439231      -16.2958022280
 C        -3.6985649908        9.3738376971      -15.6064232855
 C        -0.6915065694        5.4079898495      -10.5391156802
 C        -0.0723529197        4.6578370100      -12.8217534085
 C        -5.7651271884        0.0505502411      -11.4538956188
 C        -6.1857203165       -0.0003000317       -9.0270516390
 C         0.4825723742       -4.1169971847       -7.3711322026
 C        -0.8215835362       -4.1813808050       -9.5083346865
 C        -2.8815488774       -8.7089916178       -3.8410615860
 C        -3.6448545802       -7.1613152718       -1.9060221975
 C         2.7658598545      -11.9070227778       -2.7442425182
 C         0.5121742595      -13.0171211381       -2.3711239775
 C        -0.8408446100      -13.2367085017        4.0199374818
 C        -2.2553902657      -11.2781829894        3.2184296783
 C         3.7165682556       -6.8183553561        3.0389266076
 C         2.0074565879       -5.5783892929        4.2297773500
 H         1.7218922627       -3.7961388165        2.2393228267
 H         2.0743680991       -3.9825127206        0.4820755775
 H         3.2976010474       -4.3380976749        1.7261150890
 H         0.1482388959       -7.4587238325        5.0405539240
 H         1.4130761033       -8.6204274411        5.3455308724
 H        -0.9183363493       -9.1146400689        3.3366961754
 H        -1.1914282697       -9.3567791963        4.9926265150
 H         1.3283549743      -13.2089944565        2.5429565963
 H         1.9530376866      -11.5297922924        2.1871313827
 H         0.9702999117      -13.5568173813        0.0170314758
 H         2.5837590871      -13.0833317016        0.2643180881
 H         1.9979487569       -9.0248459423       -3.1915889300
 H         1.3771653693       -8.9489292565       -1.5979017642
 H        -0.2819846845       -8.2209124753       -4.1232373242
 H         0.4212453392       -7.0477407100       -3.0905905734
 H        -3.8173277511       -5.6645314270       -4.5821206462
 H        -3.0309898837       -6.9066234876       -5.6237652267
 H        -1.3270283543       -4.4464902910       -5.0183517656
 H        -2.8138854456       -3.8113474481       -5.7718194338
 H        -1.2932824627       -1.6662169371       -9.8111611920
 H        -1.4656394502       -0.4979565297       -8.6268424635
 H        -3.7430247847       -0.9827283965       -8.0962449676
 H        -3.7496561000       -2.3653210930       -9.3877640746
 H        -4.4993506322        2.5464287339      -11.9408646775
 H        -3.0939118999        1.6220437820      -11.3357858132
 H        -2.6247094913        3.7358021949       -9.8913289092
 H        -3.9669159025        4.5789034504      -10.6248431683
 H        -1.9951667488        5.3088498528      -14.4043997475
 H        -1.4053628885        6.9003662924      -15.0577542796
 H        -3.6864979461        7.9448928794      -13.6714743783
 H        -4.1262907640        6.2527272556      -13.6415666001
 H        -1.7903899162        8.4081520277      -17.2395529249
 H        -2.5748181287        9.7954051972      -18.0357757923
 H        -1.2270503465        8.6865570607      -19.8044876594
 H        -2.8379448515        8.0869323797      -20.1233467440
 H        -0.8736085990        3.6748848601      -18.5620071456
 H        -1.5671338569        2.4763119476      -19.6174247758
 H        -2.9709061075        3.4981491199      -17.1405066358
 H        -1.6856480301        2.2462382965      -17.1144373191
 H        -6.9900184817        1.0442723950      -19.3316608397
 H        -5.4030397121        1.4973733347      -19.7186674410
 H        -7.0210986465        2.3625573663      -21.2052514737
 H        -5.9873936089        3.7195091612      -20.6226736362
 H       -12.0452637031        1.7537986456      -19.9184106670
 H       -11.5777682925        3.0564895164      -18.8945000198
 H        -9.8916051413        1.5379001066      -17.6892650225
 H       -10.3799193656        0.2479649706      -18.7016688134
 H       -14.0707735532       -1.8063884364      -19.0958666562
 H       -13.2535933340       -3.3207874118      -19.4379382215
 H       -12.6393881311       -1.8356304973      -20.1986449625
 H        -9.9123534887       -1.1664645962      -16.4746253903
 H       -10.9676307438       -2.2276322476      -15.8023745749
 H       -10.7590144782       -0.6291308624      -15.1216620703
 H       -13.6336962785       -0.1400591469      -15.5591546160
 H       -13.0583271110       -1.6705628392      -15.1602383943
 H       -14.1842021704       -1.4990032078      -16.4204902778
 H        -9.9850994243        5.3221243454      -19.1319602960
 H       -11.2740266632        5.1113901554      -20.2518758273
 H        -9.8665742143        6.0261800113      -20.6903744026
 H        -8.5506711880        3.1959734757      -22.5452132515
 H        -8.6964063258        4.8681710497      -22.4605613971
 H       -10.1795503659        3.9054059939      -22.7214451181
 H        -6.3436472898       -0.1835083552      -16.6544833332
 H        -4.6940299250       -0.3377220063      -15.9694928086
 H        -5.1737645012       -0.9230824272      -17.5713953879
 H        -3.6403117541        1.6642696501      -15.5653703108
 H        -5.2709281860        1.8222983095      -14.9785255238
 H        -4.6749893815        3.1131955183      -15.8933918825
 H        -1.9315858380        7.2059141267      -21.7928432654
 H        -3.4307222436        6.2879705903      -21.3541893596
 H        -2.2085308603        5.5483109520      -22.4785328077
 H         0.0143248450        4.0298172020      -20.3277859726
 H         0.4642231776        5.7002513455      -20.3700942466
 H        -0.2073422396        4.9552092996      -21.7542470728
 H        -6.2611855960        8.2285977866      -17.3222521879
 H        -6.4891808732        9.3861690128      -16.0678562269
 H        -6.4461584265        7.6567723814      -15.5444393886
 H        -2.6132495272        9.2608350684      -15.6979609012
 H        -4.1129537514        9.6346867805      -14.5834385330
 H        -3.9556450241       10.3345427125      -16.2380736726
 H        -0.9770151782        4.5317232161       -9.9173556901
 H        -0.9894311306        6.3177294431      -10.0320533897
 H         0.3307362295        5.6298776041      -10.6396847896
 H        -0.4407635181        4.4362859999      -13.8017079784
 H         0.2740973254        3.6926278825      -12.4969748877
 H         0.7873559895        5.3407768637      -12.9269270631
 H        -4.9383530386       -0.0595660108      -12.2270056355
 H        -6.5158672245        0.6797119314      -11.8653526489
 H        -6.2704522486       -0.9546206811      -11.4419487801
 H        -6.6575898018        0.9370606620       -8.6533929993
 H        -5.6890510419       -0.6344165173       -8.2554548191
 H        -6.8658735185       -0.7645429260       -9.4851892757
 H         0.8016027955       -5.1671361272       -7.2055384628
 H         0.6805419479       -3.5352621096       -6.4962128332
 H         1.1872610555       -3.7479915257       -8.1378357878
 H        -0.6436195328       -5.1963721272       -9.6221801759
 H         0.0305360744       -3.7601172523      -10.0023142225
 H        -1.8255252066       -4.0566225890       -9.8353424916
 H        -3.0242872520       -9.7303032489       -3.4669514349
 H        -2.0713617362       -8.8479553428       -4.5964424599
 H        -3.7247871474       -8.4601272135       -4.4100198603
 H        -4.5782763976       -6.9279556199       -2.4033505886
 H        -3.4785833726       -6.1348984215       -1.5576185190
 H        -3.8624193521       -7.8972443127       -1.0916758730
 H         3.4440626332      -11.0946505936       -2.5129773806
 H         2.6353079769      -11.9121852308       -3.8443468697
 H         3.1075687562      -12.8310252968       -2.4108140528
 H        -0.0239011834      -13.0774250315       -3.2687823156
 H        -0.3354133110      -13.1767981212       -1.6707890790
 H         1.1150222154      -13.8894572581       -2.2044974571
 H        -1.4581695801      -13.1585736471        4.9403604819
 H         0.1147683268      -13.6860824718        4.3389104938
 H        -1.4285306415      -13.8825089275        3.2882589246
 H        -2.8926780734      -11.9375781731        2.5907151579
 H        -2.2085421608      -10.2365775019        2.8556115542
 H        -2.6469074610      -11.2301652212        4.2285898676
 H         4.2548480287       -5.9228458843        2.6897758156
 H         3.7965376511       -7.4406937901        2.1426335535
 H         4.1187082130       -7.3283243237        3.9130019999
 H         2.3419997773       -6.1546560852        5.0893132564
 H         0.9324449198       -5.2894163711        4.2196148864
 H         2.6363475771       -4.6516544102        4.1639600709
 Na        0.5372015119       -8.9295412225        0.5211597035
 Na       -5.5428052781        5.3230567814      -18.0528287388
