232

 C       -18.7509363619      -12.1770422221        0.6348054286
 C       -17.6743128760      -12.4072916037       -0.3729518916
 O       -17.5355331898      -11.7244334285       -1.3571843621
 C       -16.8655102531      -13.8177773161       -0.3135530501
 C       -15.4722804796      -13.4892273389       -0.7902372164
 O       -15.2654163776      -13.1317829232       -1.9619688181
 C       -14.3585896487      -13.1750531396        0.1954053761
 C       -13.1708871144      -12.5192985755       -0.5503663104
 C       -13.6975967865      -11.4556687885       -1.4544135923
 O       -14.6495866579      -10.7271223526       -1.3051017021
 C       -12.7802422829      -11.0660767949       -2.7685077625
 C       -13.7199753560      -11.0444722928       -4.0775001078
 O       -14.6050641064      -11.8984108557       -4.2132227275
 C       -13.3745520405      -10.0207618962       -5.1822772814
 C       -14.5374664386       -9.9865066481       -6.2397443979
 C       -15.7355233401       -9.1236193314       -5.8237086296
 O       -16.2311027175       -9.1995382813       -4.6782848944
 C       -16.2750427378       -8.1657474270       -6.8933509598
 C       -15.2533323983       -7.0221588622       -7.1718525604
 O       -14.2593070586       -6.9502321106       -6.4765413467
 C       -15.3269954077       -5.9011447055       -8.2409877590
 C       -14.1348500253       -6.2730892853       -9.3232265582
 C       -14.0899331879       -5.3007044925      -10.5173926584
 O       -15.0887896274       -4.8809144835      -11.0990821647
 C       -12.7188378760       -4.7202046009      -10.7233894860
 C       -12.4502620367       -3.7697903013       -9.4537805906
 O       -12.4321229250       -4.2757637599       -8.3239937887
 C       -11.9178593611       -2.3824781154       -9.8733983896
 C       -11.1437077886       -1.7349508868       -8.7268224143
 C       -10.3204521099       -0.5584539741       -9.1692021689
 O       -10.3859836639       -0.2063625917      -10.3474220560
 C        -9.4861030782        0.3380497196       -8.2695193853
 C        -8.0064116452       -0.0719036023       -8.5554476516
 O        -7.5111345557       -1.0526366786       -7.9826560913
 C        -7.3648339596        0.8851200818       -9.5528237587
 C        -6.0143083057        0.4716103790       -9.9963032725
 C        -5.3865982202        1.5948483701      -10.6896384816
 O        -5.7224178043        2.7322369751      -10.4561773551
 C        -4.2172164987        1.2849965159      -11.7254244111
 C        -2.9870450996        0.5600801588      -10.9416106643
 O        -2.9408047673       -0.6532732534      -10.9509024414
 C        -1.8764479507        1.4322129793      -10.2070679360
 C        -1.0793443867        0.5476668818       -9.2747694722
 C         0.1065672640        1.3948722169       -8.7566998799
 O        -0.1479202675        2.5197752055       -8.2668756457
 C         1.6207705895        0.7958482782       -8.5187105082
 C         2.5045171144        2.0463625067       -8.6895770545
 O         3.1501438601        2.1648846473       -9.6945556846
 C         2.5693573724        3.2191390950       -7.7085341743
 C         3.8319403005        4.0583888469       -8.0367254259
 C         3.7929547490        4.7655085240       -9.3699076674
 O         2.8113737474        5.5549541181       -9.5488453798
 C         4.9330975026        4.8915533906      -10.5105318873
 C         4.3281884746        4.6586386128      -11.8561496602
 O         4.6849871910        3.7494963481      -12.5624529103
 C         3.1215174619        5.4877168898      -12.4153360226
 C         3.8255452425        6.5238593827      -13.2604531922
 C         3.9898013911        6.2005843937      -14.7040743103
 O         4.4974545829        5.1269526135      -14.9876492267
 C         3.8049600215        7.1361248441      -15.9098562729
 C         5.1662470711        7.1679505465      -16.7588478016
 O         5.2344704694        6.6203882004      -17.8824333301
 C         6.5430985796        7.6168922728      -16.0211742697
 C         7.7151270604        6.8904464861      -16.6171993299
 C         7.4052019003        5.4182102706      -16.3779857413
 O         7.1560650240        4.9962789055      -15.2187592302
 C         7.8507309816        4.3396804301      -17.3541678440
 C         9.3752737639        3.9285743670      -16.8486600867
 O         9.5605513195        3.7625406802      -15.6373131018
 C        10.4419125412        3.5233959139      -17.8978495346
 C        11.2723305063        2.2622278093      -17.6041014451
 C        10.4958212558        0.9522206420      -17.6249484968
 O         9.4529106108        0.7798506547      -18.2061518441
 C        11.2154166374       -0.2548620816      -16.8790065058
 C        10.7337087776       -0.1782966997      -15.3608936253
 O        11.3761979187       -0.7329413003      -14.4791025522
 C         9.2450972142        0.2116168251      -15.0762425902
 C         8.9494839142        0.0883335828      -13.4840904984
 C         7.5748609285        0.6348058450      -13.0905156988
 O         7.4399934538        1.8521478711      -12.9160560368
 C         6.1992462604       -0.1438331344      -13.2874368516
 C         5.3852920648        0.1661834713      -14.5828512908
 O         5.3191218115        1.3105665551      -15.0291339632
 C         4.5704808164       -0.9599148987      -15.1366749330
 C         6.4848889905       -1.5831846133      -13.0259517555
 C         5.2308199812        0.4522304793      -12.2270881880
 C        10.7324896440       -1.6231069755      -17.5695197131
 C        12.7722395169       -0.0683988311      -16.9019851512
 C         7.1032815221        3.0332671544      -17.1505949339
 C         7.9374810533        4.8253445990      -18.7677999150
 C         2.6385926510        6.5664989848      -16.8005486550
 C         3.4865076878        8.6132707718      -15.4876695406
 C         5.4569091175        6.4022233409      -10.3325922927
 C         6.1056190311        3.8877647884      -10.2594579532
 C         1.6052226293        0.3532384053       -7.0952364917
 C         1.9895692078       -0.3077426296       -9.4569598424
 C        -4.7801854219        0.3400794895      -12.8035978420
 C        -3.6738800790        2.6407465804      -12.3415718239
 C        -9.9793781740        1.7628216162       -8.4505280547
 C        -9.7260017495        0.0184716871       -6.6878275603
 C       -11.6519747803       -5.8571901616      -10.6520839511
 C       -12.6740824123       -3.9699056184      -12.1247932595
 C       -16.5457949705       -8.9860813451       -8.1143037389
 C       -17.6626675433       -7.5693856139       -6.4104441822
 C       -12.2294109067       -9.5484407380       -2.4866550639
 C       -11.5310333348      -11.9546694815       -3.0480006792
 C       -17.0900125077      -14.4699670677        1.1193289894
 C       -17.5240953887      -14.7676320861       -1.3893804335
 H       -18.3088875941      -11.9288411378        1.5585613540
 H       -19.2381065061      -13.1794403576        0.6998646957
 H       -19.4535915500      -11.4078275570        0.2964896826
 H       -14.1049610569      -14.1079092436        0.6974254774
 H       -14.7259401531      -12.4530837386        0.9860086276
 H       -12.6040799774      -13.3117431352       -1.0454802418
 H       -12.4961365538      -12.0796233308        0.1799719716
 H       -12.4673012172      -10.2191911920       -5.6804329450
 H       -13.2207385112       -8.9884490122       -4.8010036578
 H       -14.9734207976      -11.0841607946       -6.3125107509
 H       -13.9200800406       -9.7338162057       -7.1097532002
 H       -14.9836033089       -4.9633578692       -7.7092393954
 H       -16.3047422926       -5.6612093933       -8.6295816260
 H       -14.1297639304       -7.2828537927       -9.6498770290
 H       -13.2009089848       -6.1861907382       -8.7053632767
 H       -12.7654595301       -1.8622188863      -10.3366602234
 H       -11.3207997490       -2.5869205364      -10.8332627754
 H       -10.5184441066       -2.4925266154       -8.1730240416
 H       -11.9258210055       -1.5534679323       -8.0506917503
 H        -7.2022120561        1.7571913037       -9.0012549420
 H        -8.0159142960        1.0608625864      -10.3572843440
 H        -5.9420038277       -0.4028811246      -10.6222608800
 H        -5.4416773767        0.2277812849       -8.9973104412
 H        -2.2936856207        2.2553672098       -9.6890143922
 H        -1.3576588283        1.8845582212      -11.1380667958
 H        -0.6175745221       -0.3776434907       -9.6471345463
 H        -1.6055014752        0.3574659362       -8.3563527052
 H         2.6799396039        2.8666417358       -6.7416575610
 H         1.6622911787        3.8234130262       -7.8730003652
 H         4.7255086570        3.4068816766       -7.9914232325
 H         3.8946484938        4.9752591335       -7.4505594140
 H         2.5790252116        5.9634542957      -11.5953480188
 H         2.5560432088        4.7602321814      -13.0162135223
 H         4.8237044236        6.6981711830      -12.8572689784
 H         3.3548389608        7.5352493237      -13.2717593934
 H         6.4699046883        7.4156844929      -14.9533657784
 H         6.4993752421        8.6837090440      -16.2543966761
 H         8.5695419653        7.4177818077      -15.9896180063
 H         7.8135562911        7.1713814129      -17.6253708199
 H        11.0359876415        4.4122326249      -18.0750878661
 H         9.9174723960        3.2883127753      -18.8626061650
 H        11.8093859010        2.2751743858      -16.5564821757
 H        12.1971261288        2.2695105851      -18.1524618370
 H         8.7800450828       -0.5735645734      -15.6549857320
 H         8.9857148471        1.1679413525      -15.5363279249
 H         9.6958853564        0.7823709593      -13.0878438537
 H         9.2236889908       -0.9271334105      -13.1251367100
 H         4.9642232973       -1.1908225688      -16.1728217719
 H         3.5933744728       -0.5720616449      -15.3575341822
 H         4.3994005334       -1.8335885563      -14.6042682455
 H         5.5505884570       -2.1105196661      -12.7704263268
 H         6.9960820410       -1.6742700513      -12.1058571156
 H         6.9939943916       -2.0909726979      -13.8374147113
 H         5.3463330298        0.0244937889      -11.3148051305
 H         4.2270113154        0.3024367379      -12.4085198755
 H         5.2966864238        1.5326131540      -11.9844918653
 H        11.2128954652       -1.5907743101      -18.5436887259
 H         9.6571997836       -1.7294153737      -17.6647511186
 H        11.2832668110       -2.3638820924      -17.0415031621
 H        13.2864490773        0.0312487641      -17.8438932631
 H        13.1549709922       -0.8689406263      -16.2852312817
 H        13.0265279388        0.8701309400      -16.4680304344
 H         7.2043918756        2.6242211758      -16.1164352060
 H         7.3651751652        2.1972827230      -17.7223935532
 H         6.0713175067        3.2940076460      -17.3788702749
 H         8.7755528035        5.5747259440      -18.8112287006
 H         7.0526606142        5.3782869523      -18.9471035074
 H         8.1836859487        4.0097176032      -19.5717064375
 H         1.7401022635        6.2513187052      -16.1822466816
 H         3.0655829156        5.7458029466      -17.3021064779
 H         2.1668715697        7.1524483778      -17.6277722620
 H         3.1249273713        9.2673891005      -16.3669327446
 H         4.3666284563        9.0909094324      -14.9733399826
 H         2.7464634143        8.5645484697      -14.7018667658
 H         5.5926097092        6.7347737552       -9.2880428420
 H         4.6387286286        7.1483634727      -10.5526784046
 H         6.3094253482        6.8715488609      -10.8212442417
 H         6.8853722632        3.6530747749      -11.0081864878
 H         5.6065766202        2.8646690667      -10.0050799926
 H         6.7345394576        4.2379437333       -9.4092760775
 H         0.9307011735        0.9514919631       -6.5287062885
 H         2.5317749362        0.2451805956       -6.6685609470
 H         1.3089376340       -0.6219982463       -7.1137833492
 H         1.2163787686       -1.0977146300       -9.3517032191
 H         2.9207689381       -0.9401956951       -9.3757469669
 H         2.0720205149        0.0250544098      -10.4930694580
 H        -5.1909135496       -0.5916418893      -12.4494650273
 H        -3.9269772790       -0.0773428728      -13.2925253046
 H        -5.5307318735        0.7988631220      -13.5463004203
 H        -2.7815713058        2.6569202538      -12.8848592889
 H        -3.5058121222        3.3780062104      -11.5726939464
 H        -4.4971752430        2.9140187549      -13.0075868314
 H       -10.7922358180        1.8677272081       -7.6864211226
 H       -10.3975909726        2.0856413052       -9.3691158503
 H        -9.1398066428        2.3928032353       -8.1657782105
 H       -10.7760511407       -0.0265785371       -6.4320652382
 H        -9.2606644929        0.7548259600       -6.0317018394
 H        -9.3497779992       -0.9434012587       -6.3135451468
 H       -10.8015112218       -5.5443352160      -11.2610297106
 H       -12.0651221904       -6.7559462766      -11.0074465791
 H       -11.2869013351       -5.9377906843       -9.6370727014
 H       -13.3568415046       -4.5838448283      -12.7157745111
 H       -11.6826577358       -4.0311633891      -12.5737216025
 H       -12.9660653029       -2.9194006161      -12.0057886262
 H       -15.5287107379       -9.2647187997       -8.5435094890
 H       -17.0074567018       -8.3829870148       -8.9200040389
 H       -17.1558473929       -9.8065633790       -7.8500623044
 H       -17.4543647413       -7.1602456025       -5.4491018081
 H       -18.3556329625       -8.3375465368       -6.2838548417
 H       -17.8656346638       -6.7606888208       -7.1037300565
 H       -13.0324158720       -8.9202903619       -2.1501954573
 H       -11.6996104132       -9.2063885729       -3.4035999933
 H       -11.4645978880       -9.7289315637       -1.6944884659
 H       -11.8114122974      -13.0346239812       -3.2019942286
 H       -10.7609149674      -11.9857365197       -2.1648100657
 H       -11.1621521671      -11.7321431584       -4.0031795597
 H       -16.8461261620      -13.8503170882        1.9841538765
 H       -16.4140387955      -15.3677788341        1.1620630450
 H       -18.1759066049      -14.6510592737        1.3567361307
 H       -17.5126365400      -15.8187940755       -1.1057718318
 H       -17.0980987992      -14.7150868142       -2.4144777051
 H       -18.5504096948      -14.4385571696       -1.4869694368
 Na      -16.3256515221      -11.0409091778       -3.1254312015
 Na        6.1852863162        3.1899031214      -14.0929507178
