232

 C         2.3657889324       -4.4887985528        1.2847401189
 C         2.0022926365       -5.9302836822        1.6071126471
 O         1.6047343761       -6.6075519023        0.6350696559
 C         2.2012299535       -6.5694989035        3.0553887068
 C         1.5396583732       -7.9792033619        3.1663240072
 O         1.7379029383       -8.9384530153        2.4246462059
 C         0.7933096046       -8.2979551890        4.4644287612
 C        -0.3956880977       -9.2962169449        4.3692758791
 C        -0.0063188164      -10.8176109076        4.3101210967
 O         0.8761221743      -11.2537897202        4.9883200441
 C        -0.8610990276      -11.8488658298        3.4254430085
 C        -0.0014017056      -11.6192680943        2.0513916924
 O        -0.5022029742      -10.8531728433        1.3003045577
 C         1.3157676057      -12.3453591664        1.8124377879
 C         1.7209555855      -12.6638116261        0.3477348686
 C         1.6651474816      -11.5517442470       -0.6144441109
 O         2.0267637044      -10.4042968415       -0.2472942189
 C         1.3207192898      -11.8641738883       -2.0472180139
 C         0.5019110710      -10.5846702573       -2.6457828289
 O        -0.6200251394      -10.7647262820       -3.1142585845
 C         1.0557237311       -9.1626051316       -2.5921080987
 C         0.0340141634       -8.1452781280       -3.0958273144
 C        -1.2035052416       -8.0677625832       -2.2258890085
 O        -1.1480475754       -8.2593879595       -1.0128881160
 C        -2.5162705556       -7.6195746760       -3.0121855466
 C        -2.1383874357       -6.3308189295       -3.8791880014
 O        -1.4204590318       -5.5200746009       -3.3457205083
 C        -2.8125976357       -6.0112960034       -5.1978400721
 C        -2.1291180480       -4.7472498548       -5.7789298799
 C        -2.0047526958       -4.7964270842       -7.3017191107
 O        -2.6708794414       -5.4561082956       -8.0782719460
 C        -0.9166780481       -3.8532227037       -7.9560572644
 C        -1.4120518352       -2.3893833898       -7.6930444528
 O        -1.3500224945       -1.9634816475       -6.5251741324
 C        -1.8519665693       -1.4253519453       -8.8479366758
 C        -3.4024363720       -1.1976564950       -8.8590016316
 C        -3.7872500442       -0.4466347296      -10.1015929437
 O        -3.1329970605       -0.4694354378      -11.1786520678
 C        -5.0809897876        0.4380957353      -10.0819815630
 C        -4.6575670728        1.9628673743       -9.9352792679
 O        -5.0443475505        2.6337145150       -8.9853051958
 C        -3.8197246558        2.5542251247      -11.0922971663
 C        -3.2234560211        3.8664092559      -10.8619908210
 C        -2.4343785172        4.2628166775      -12.0250815351
 O        -2.6620767501        3.8298918079      -13.1236695784
 C        -1.1336957042        5.2066843404      -11.9704325133
 C        -1.4864823343        6.5430529289      -12.6410487574
 O        -1.2285810545        7.6495359730      -12.2232587627
 C        -2.0524657766        6.3559836056      -14.1480569440
 C        -3.4377269767        7.0323415659      -14.1302619073
 C        -4.1851159366        6.8974702325      -15.4851131952
 O        -4.5294266253        5.7787404958      -15.9423084385
 C        -4.4401438660        8.1846695208      -16.2692707295
 C        -3.8436166131        8.1016690331      -17.7850229386
 O        -4.4252106604        7.4760426934      -18.6734213995
 C        -2.4946612072        8.6744683290      -18.0023575705
 C        -1.9820944297        8.1549117100      -19.3841723120
 C        -1.4406617396        6.6977937698      -19.1934478300
 O        -0.6763441154        6.5476974232      -18.2301009567
 C        -1.7150026694        5.5109303645      -20.3289181610
 C        -2.5786837765        4.4085138844      -19.6020100608
 O        -3.7923802229        4.5194025459      -19.3636246748
 C        -1.8424631377        3.1767831469      -19.0270182984
 C        -2.5951036379        2.6371462588      -17.7403606815
 C        -3.5492402741        1.3202901871      -17.8934154034
 O        -3.1488503504        0.3359008601      -18.5754039152
 C        -4.8077850696        1.4256570961      -16.9998057746
 C        -5.9076499744        2.2770628131      -17.8909561628
 O        -6.3736203171        3.3001356581      -17.4540531068
 C        -6.4336835555        1.8290198780      -19.4128546804
 C        -6.8334875938        3.0264981545      -20.3364618800
 C        -7.9479831459        4.0432379975      -19.9192464536
 O        -7.7604117847        5.0054023108      -19.1934227955
 C        -9.3187185043        3.8737704934      -20.5512148361
 C        -9.8870435007        2.4474191368      -20.1835400860
 O        -9.2795374007        1.4878572387      -20.5922152671
 C       -11.0621755056        2.2874526659      -19.1486613702
 C       -10.7275992122        1.0870953261      -18.1870860024
 C       -11.8325294309        0.6223207093      -17.2986257027
 O       -12.5419655763        1.4346968628      -16.8378014151
 C       -12.1085589352       -0.9228108273      -16.9570353506
 C       -12.0821731829       -1.8999381501      -18.2358207755
 O       -11.1698384675       -2.6798573307      -18.3157665435
 C       -13.2257880706       -2.0005578485      -19.2712490805
 C       -10.9138934222       -1.3654577386      -16.1023108809
 C       -13.4383602533       -0.9804034135      -16.1857345883
 C       -10.1989619153        5.0609417913      -20.1470197507
 C        -9.1197961155        3.9153964106      -22.1204191973
 C        -5.3872002846        0.0110775570      -16.8214038470
 C        -4.5142630341        2.0827869624      -15.6165974243
 C        -2.3779908674        6.1281950621      -21.5501715005
 C        -0.3575780026        5.0514754247      -20.8380779765
 C        -6.0855087863        8.2574175375      -16.2942786055
 C        -3.9693546638        9.4173767808      -15.4730886311
 C        -0.6338913092        5.6186554879      -10.5530694048
 C        -0.0889044099        4.5760455290      -12.8594140714
 C        -5.7760656000        0.2436473006      -11.4611204245
 C        -6.0923399791        0.1190251477       -8.9575741887
 C         0.4305349357       -4.1106165241       -7.2894637734
 C        -0.8522323958       -4.1386573911       -9.5191473884
 C        -3.0706957938       -8.7612555646       -3.8521318328
 C        -3.5291338343       -7.0344368542       -2.0007907729
 C         2.7399952995      -12.0794880536       -2.7164098039
 C         0.5160381843      -13.0900401328       -2.2934562499
 C        -0.7174795254      -13.2800622280        4.0202395513
 C        -2.2943154634      -11.4395247600        3.0976619709
 C         3.8573899147       -6.8421063852        2.9411248765
 C         1.8075236595       -5.5240291841        4.1593208107
 H         1.8382468174       -3.6797964749        1.8184641168
 H         2.2108735924       -4.3395616579        0.2258301143
 H         3.4391917016       -4.2784684584        1.4035797747
 H         0.2974467468       -7.4110268274        4.8450958984
 H         1.4421638074       -8.5720054859        5.3009293407
 H        -1.0049166283       -8.9810319351        3.5355464116
 H        -0.9539858164       -9.1425937753        5.2156375364
 H         1.5127069895      -13.2629317673        2.4047789563
 H         2.1454621121      -11.5368097805        2.1361288158
 H         1.0990392141      -13.4164685086       -0.0222976833
 H         2.6846332520      -13.1554622053        0.3408754390
 H         2.0026875588       -9.0476156544       -3.1508822891
 H         1.3694503149       -8.9485821241       -1.5947874390
 H        -0.2401370408       -8.2841935798       -4.1500237600
 H         0.4025746630       -7.1269523676       -3.1679076991
 H        -3.8503322713       -5.9599392138       -4.9773340428
 H        -2.6433095645       -6.8420981489       -5.8474962450
 H        -1.0964883188       -4.7675240239       -5.3236580073
 H        -2.5029315528       -3.8145886023       -5.4976051276
 H        -1.6076671080       -1.8291586256       -9.8438728409
 H        -1.2584534986       -0.4964728817       -8.7716561491
 H        -3.7256821854       -0.5604634379       -7.9841656443
 H        -3.8069431113       -2.2069328389       -8.9573134815
 H        -4.4197391549        2.6099436831      -12.0356082822
 H        -3.0076817660        1.7108688904      -11.3323325972
 H        -2.6773725815        3.7951995277       -9.9469305070
 H        -3.9744121695        4.6808994407      -10.7199438982
 H        -2.0393774563        5.3849177598      -14.6109188481
 H        -1.4014837057        7.0445472856      -14.7516977855
 H        -3.5159105642        8.0752118143      -13.8901701397
 H        -4.2044324816        6.5599732218      -13.4694603391
 H        -1.8620856772        8.2953216726      -17.1826404189
 H        -2.5086722472        9.8319515784      -17.9356276370
 H        -1.1206827264        8.7798675579      -19.8322794129
 H        -2.8071457235        8.1259116986      -20.1263539288
 H        -0.7943821751        3.4374632035      -18.8566315229
 H        -1.8387104974        2.3880638126      -19.7833704933
 H        -3.2796320581        3.4438667764      -17.5047630457
 H        -1.8515783618        2.5109217233      -16.9342523371
 H        -7.2510136189        1.1178009871      -19.3864527232
 H        -5.5547797328        1.2152885109      -19.8437306119
 H        -7.1148565710        2.3761602196      -21.1901910556
 H        -6.0166631623        3.6660445507      -20.7071105181
 H       -11.9037285452        1.9463593828      -19.7689892612
 H       -11.4536623732        3.1532146980      -18.6066915087
 H        -9.8665942066        1.4581459172      -17.5211251762
 H       -10.2500457425        0.3183972970      -18.7528319560
 H       -14.1052526606       -1.4513275785      -19.1254381975
 H       -13.6138519939       -3.0838306012      -19.2599723447
 H       -12.8049109734       -1.9028640150      -20.3221777888
 H        -9.9385151780       -1.2232830559      -16.5802931349
 H       -10.8805458464       -2.4064956214      -15.9327934226
 H       -10.8552616755       -0.7985362580      -15.1826162916
 H       -13.5989297153       -0.0351010203      -15.7618934568
 H       -13.4457297021       -1.6980934586      -15.3423337038
 H       -14.3779289524       -1.1546288751      -16.7738131738
 H       -10.0603392724        5.0768593219      -19.0248254906
 H       -11.2356976363        5.0111345854      -20.4877324731
 H        -9.8437731658        5.9466957595      -20.5451474572
 H        -8.3242153255        3.2865493192      -22.4903663066
 H        -8.7548066004        4.9163737848      -22.4050991229
 H       -10.0262869313        3.5881683365      -22.6916169011
 H        -6.4841975413        0.0936948441      -16.7935915495
 H        -4.9545824702       -0.4432672688      -15.8941601735
 H        -5.2171418457       -0.7592368142      -17.6011295744
 H        -3.5448377391        1.7793927040      -15.3275926023
 H        -5.1430987117        1.7098471089      -14.8445014151
 H        -4.6407504676        3.1794953288      -15.5425958117
 H        -1.8798341589        7.1498267101      -21.8225288153
 H        -3.5496517211        6.3005611822      -21.3406544587
 H        -2.2609847375        5.4924852390      -22.4360924538
 H        -0.0578669545        4.1918600195      -20.2549785657
 H         0.4019148472        5.8070971519      -20.7232934483
 H        -0.4263585689        4.6499267454      -21.8802823044
 H        -6.3403238131        8.4616725237      -17.3674269557
 H        -6.4648428783        9.1813977115      -15.8108444537
 H        -6.5850211351        7.4182772375      -15.7876092808
 H        -2.9396811086        9.3047363435      -15.1712906193
 H        -4.7148418482        9.6320206986      -14.6101621540
 H        -4.0301966170       10.3395980711      -16.0741837821
 H        -0.6746063013        4.8383847846       -9.8123296369
 H        -1.1861864899        6.4888586943      -10.1881867550
 H         0.2993537713        6.0813722799      -10.6975610873
 H        -0.5880253828        4.0281517099      -13.6604819285
 H         0.5463125756        3.8326008530      -12.4098156698
 H         0.5264136753        5.3206865871      -13.2787710673
 H        -5.2745049738        0.4457566367      -12.3116811346
 H        -6.6570844545        0.8382980365      -11.4321908224
 H        -6.1597874438       -0.7612969118      -11.6009292031
 H        -6.3593532599        1.1235838781       -8.5038757792
 H        -5.5979484646       -0.5072471959       -8.2702908818
 H        -6.9202012178       -0.5060791000       -9.3051329815
 H         0.6299126723       -5.0691262555       -6.8951629217
 H         0.6259747885       -3.4395131148       -6.5084809606
 H         1.1646763299       -3.8939947000       -8.0767360108
 H        -0.4076455425       -5.1394342568       -9.5118141171
 H        -0.0611126828       -3.6181737167       -9.9791769698
 H        -1.8230961094       -4.2639966341       -9.8620737174
 H        -3.2449242249       -9.6463212284       -3.3375750769
 H        -2.2845799233       -9.0570670983       -4.5194853870
 H        -3.9296303627       -8.5328021642       -4.5100261725
 H        -4.4032153441       -6.5115834153       -2.4090858486
 H        -3.1012222080       -6.1857564202       -1.4688772664
 H        -3.8051801628       -7.7832402527       -1.3366090900
 H         3.3709008746      -11.1595845504       -2.7791372783
 H         2.6865353039      -12.5682158290       -3.7071663390
 H         3.2024020159      -12.7915800076       -2.0551324120
 H        -0.0267168484      -13.1171879404       -3.2327147313
 H        -0.3392847428      -13.1367979639       -1.6471568203
 H         1.0429212920      -14.0746347036       -2.0633397463
 H        -0.9437135335      -13.3833431898        5.1099561677
 H         0.2896663203      -13.5820398261        3.9024424576
 H        -1.3533891434      -13.9218483515        3.4558254661
 H        -2.9462388645      -12.2019449678        2.6831685586
 H        -2.1667441255      -10.5815793766        2.4712934562
 H        -2.6573918658      -11.0818717007        4.0551099599
 H         4.1852382950       -5.9037323831        2.5268698558
 H         4.1501165984       -7.5637893054        2.2139934928
 H         4.3007975882       -7.0576274107        3.9166922658
 H         1.7072491024       -5.9795996014        5.1647548189
 H         0.9772175126       -5.0373736037        3.7812208594
 H         2.6255138534       -4.8401826023        4.2590296293
 Na        0.4335844755       -8.8309134332        0.5571456938
 Na       -5.5710012815        5.3499638050      -18.0097596338
