232

 C         2.7748755605       -4.9117261015        0.8129315205
 C         2.1310740128       -6.1909832397        1.3339980456
 O         1.3608031952       -6.8139900613        0.5735367803
 C         2.2998287319       -6.6345937721        2.7853892056
 C         1.6280190060       -8.0512528830        3.1429562375
 O         1.8103665759       -8.9747664650        2.3497665652
 C         0.7989538420       -8.1876464279        4.4115425047
 C        -0.4058390996       -9.1767379000        4.0526264206
 C        -0.0416818902      -10.6239558269        4.4728775826
 O         0.5423896354      -10.8991619146        5.4662491937
 C        -0.5406383323      -11.8287321859        3.4289780865
 C         0.2460135257      -11.5341798577        2.1846092249
 O        -0.2971226115      -10.7409511721        1.4035514971
 C         1.6511837835      -12.1145792681        1.9761772714
 C         1.6786151734      -12.7925795397        0.5222646322
 C         1.8682555483      -11.6792861865       -0.4921892576
 O         2.3208215336      -10.5925595278       -0.2165922436
 C         1.3701268497      -11.9603368356       -2.0156539105
 C         0.4857373516      -10.7659329294       -2.6148847511
 O        -0.5682979333      -11.0471250774       -3.1829353389
 C         1.0868502591       -9.2901147529       -2.8009594415
 C         0.0295879111       -8.3054011481       -3.3273655904
 C        -1.1656549426       -8.2274120125       -2.4573422392
 O        -1.1000608342       -8.4447901245       -1.2552524996
 C        -2.5353523059       -7.6864034530       -3.0174991704
 C        -2.2173722358       -6.3620804193       -4.0072384341
 O        -1.5773105681       -5.4462137862       -3.4839338172
 C        -2.5075857522       -6.3634722472       -5.4779315545
 C        -2.3250469991       -4.8838092690       -5.9816815066
 C        -2.1666855634       -4.5926515463       -7.5280773248
 O        -3.0719892725       -4.8758081537       -8.2824986346
 C        -0.9342657170       -3.7443967166       -8.0479249573
 C        -1.4110676865       -2.3115534092       -7.7226729636
 O        -1.2633869021       -1.9447759326       -6.5234199853
 C        -1.8545887001       -1.3038129861       -8.7496730342
 C        -3.2256312031       -0.6607955517       -8.5117202238
 C        -3.8347534262       -0.2750971315       -9.8590100861
 O        -3.4247526524       -0.6820112972      -10.9609028194
 C        -5.1497492471        0.7200275574       -9.9042970463
 C        -4.5185688840        2.1260485258       -9.7880315793
 O        -4.6041014622        2.7920558118       -8.7693876125
 C        -3.7918469838        2.6638453651      -11.0516424169
 C        -2.8463946865        3.8435037694      -10.8096243358
 C        -2.1716070014        4.2452786250      -12.1252343599
 O        -2.5543216763        3.9925461910      -13.2359144614
 C        -0.9369656027        5.3074649420      -11.9164035144
 C        -1.4936920793        6.5856226691      -12.6441320516
 O        -1.6220049592        7.6455719699      -12.0702118332
 C        -2.0735288633        6.5892783681      -14.1867030631
 C        -3.6168503862        6.9141577980      -14.0151724279
 C        -4.2930695519        6.9315099606      -15.5405895741
 O        -4.5285578926        5.7839089997      -16.0167412767
 C        -4.7020952926        8.2004558474      -16.3220026555
 C        -3.8940363060        7.9292056096      -17.6658268945
 O        -4.1470161187        7.0689096006      -18.5041521617
 C        -2.5743583760        8.6938172707      -17.8939044614
 C        -1.9530390894        8.0140270658      -19.1700407947
 C        -1.4951330788        6.5647406456      -19.0957671990
 O        -0.6841919232        6.2176477909      -18.2314463482
 C        -1.8626703216        5.5058463057      -20.3195985572
 C        -2.7483097594        4.4361864359      -19.5455825788
 O        -3.9562222098        4.6246415269      -19.3275286218
 C        -2.0985305105        3.0548685105      -19.1352668120
 C        -2.6766808095        2.5482880648      -17.7038087233
 C        -3.7687140394        1.4933344815      -17.8212294290
 O        -3.4691607477        0.5395262778      -18.5960490183
 C        -5.1319917033        1.4571619174      -16.8740925979
 C        -6.1368682136        2.4475027595      -17.5585410770
 O        -6.4950698820        3.4965238104      -17.0338699612
 C        -6.6337985406        1.9768076564      -18.9530343402
 C        -6.6748089700        3.1069576609      -20.0708726746
 C        -7.7599297257        4.0807514697      -19.9163541811
 O        -7.6062722128        5.1272477970      -19.3354530252
 C        -9.1305626392        3.7133112868      -20.5217354332
 C        -9.5194570225        2.2741728151      -20.0162555765
 O        -9.3050649948        1.3527871210      -20.7085223824
 C       -10.1880233053        2.0899235271      -18.6337878962
 C       -10.4568776468        0.5988087020      -18.3027599696
 C       -11.7627009453        0.4888529993      -17.4112598678
 O       -12.3703867950        1.4151490748      -17.0368701501
 C       -12.1724613178       -1.0169937154      -17.0367984588
 C       -12.2425846574       -1.6942900838      -18.5059650620
 O       -11.5880410610       -2.6372095060      -18.8394165112
 C       -13.3250307956       -1.1946919119      -19.5577109404
 C       -11.0755368739       -1.6815639171      -16.0926435566
 C       -13.5700975190       -1.0878656530      -16.2838696221
 C       -10.0422988976        4.7656930309      -19.9750868990
 C        -8.9492781205        3.7394224193      -22.0103838808
 C        -5.5744522354        0.0228130595      -16.7578277111
 C        -4.7521894691        1.9689041694      -15.4311931739
 C        -2.7567083423        6.0648301294      -21.4451247613
 C        -0.5070253675        4.9989020279      -20.9632318592
 C        -6.2579397736        8.1873889630      -16.7324786897
 C        -4.3949144634        9.5833410740      -15.7566142076
 C        -0.5315233579        5.7375010060      -10.5373665935
 C         0.2783063974        4.6350524905      -12.6800046584
 C        -5.7918936185        0.3288933296      -11.2885581227
 C        -6.2151365569        0.4113438721       -8.7442467281
 C         0.4222395419       -4.1077037475       -7.2877152080
 C        -0.5924886225       -3.9606587092       -9.5990382658
 C        -3.2497798679       -8.7054916074       -3.9251225938
 C        -3.3500183101       -7.1021569758       -1.8872760357
 C         2.5921856070      -12.1734210410       -2.8823212604
 C         0.4232492081      -13.2172140859       -2.0698691686
 C        -0.2864549016      -13.1166238813        4.1352117638
 C        -2.0757328481      -11.4636863574        3.1831034339
 C         3.7889235089       -6.8968178052        3.1429447574
 C         1.7675855478       -5.4248355850        3.7228333232
 H         2.1231457675       -4.0625963029        0.8182339509
 H         3.1289344123       -5.0207757119       -0.2388147471
 H         3.6444973356       -4.5826044825        1.4134664750
 H         0.3429225937       -7.2239499770        4.7080210722
 H         1.1883369533       -8.5775167344        5.4091637181
 H        -0.5646830319       -9.0555082595        2.9190628576
 H        -1.2918277617       -8.8707631842        4.6005882190
 H         1.9222444054      -12.8164148562        2.7072496099
 H         2.4114164150      -11.2823273184        1.9863434421
 H         0.6542984840      -13.2661856686        0.3470853500
 H         2.4456223658      -13.6174687669        0.4179298312
 H         1.9842876747       -9.3113875804       -3.4765926415
 H         1.5250583539       -8.8365726954       -1.9126833205
 H        -0.4559533607       -8.5495641818       -4.3271859367
 H         0.4130276918       -7.3311274147       -3.6634252471
 H        -3.4780041005       -6.8172965874       -5.7918956979
 H        -1.6019865121       -7.0012410678       -5.8612448602
 H        -1.5462132923       -4.2861359036       -5.3517680323
 H        -3.2698132808       -4.3734486347       -5.6093480454
 H        -1.7917812064       -1.7153007522       -9.7276841005
 H        -1.1801282662       -0.5180733280       -8.7546988104
 H        -3.1461097916        0.2613817290       -7.8924371771
 H        -3.8889759158       -1.3872409153       -8.0609919077
 H        -4.5211242725        2.9958897466      -11.7530423954
 H        -3.2585129279        1.7228407878      -11.4868002363
 H        -2.0672096451        3.5248552899      -10.0728891504
 H        -3.3689902505        4.6375860652      -10.3329215403
 H        -1.9287073346        5.6686591380      -14.7053686540
 H        -1.4185287811        7.3608336625      -14.7202927001
 H        -3.7739182712        7.9292367400      -13.5391403257
 H        -4.1941734719        6.2170798840      -13.4141425357
 H        -1.9679124161        8.6263834456      -17.0261574835
 H        -2.8445235618        9.6973316629      -18.1723463556
 H        -1.0407561991        8.5068455093      -19.4608692795
 H        -2.6397373168        8.0507724299      -19.9382598255
 H        -1.0034915674        3.1289980645      -19.1977914836
 H        -2.3053770555        2.3488298324      -19.9069303921
 H        -2.9722719602        3.5245482107      -17.2425801573
 H        -1.8299882580        2.0338827450      -17.2330922430
 H        -7.5768520982        1.5715647314      -18.6448565632
 H        -6.1482238728        1.0779112484      -19.2009634987
 H        -6.7299850585        2.5199911124      -21.0285530752
 H        -5.7253425835        3.6241908300      -20.1459471710
 H       -11.1434608658        2.6374933589      -18.5332538845
 H        -9.5150912742        2.5023846367      -17.8891485225
 H        -9.5447167678        0.0458655472      -17.8584048981
 H       -10.5673839011        0.1699040739      -19.2228434234
 H       -13.1381427647       -0.3377528683      -20.0512990750
 H       -14.3045283718       -0.8668025555      -19.1138261447
 H       -13.4835975444       -2.0866595047      -20.1843603953
 H       -10.0971637913       -1.7970012936      -16.5895494732
 H       -11.2440971583       -2.6749847134      -15.7967183874
 H       -10.9826596078       -1.0902485843      -15.1379503662
 H       -13.4905745200       -1.2852220748      -15.2999817278
 H       -14.1911954862       -1.9010892822      -16.6675925272
 H       -14.0994488278       -0.1251776453      -16.3137390526
 H       -10.0736866641        4.7581607738      -18.8941159166
 H       -10.9436315351        4.7336823625      -20.5580013376
 H        -9.7005548853        5.7246446974      -20.2775750806
 H        -8.5401568122        2.8324017319      -22.4411085115
 H        -8.4156817787        4.5893860858      -22.3803262819
 H        -9.9248001928        3.7294787485      -22.4524959384
 H        -6.3396792573       -0.1192211841      -16.0428001554
 H        -4.6953025592       -0.5743284788      -16.5379663459
 H        -5.8596719316       -0.4311586574      -17.6795331826
 H        -4.1973820292        1.2908922273      -14.8214798584
 H        -5.7192367028        2.0962095991      -14.8290087811
 H        -4.1136952009        2.9113005606      -15.4526857429
 H        -2.3058148477        6.7144530517      -22.1441236094
 H        -3.6243367092        6.5302802561      -20.9208984398
 H        -3.1672532599        5.2990379846      -21.9256062037
 H         0.3731685574        5.4493954982      -20.4765902319
 H        -0.4988252720        5.2806831607      -21.9831072510
 H        -0.3765831985        3.9573824150      -20.8617731817
 H        -6.5760026033        9.1059774054      -17.2143247043
 H        -6.8715491184        8.2094275402      -15.7869010177
 H        -6.4637584972        7.3368929479      -17.3758407723
 H        -3.4100891984        9.9445871296      -15.6102931475
 H        -4.7716867653        9.6002403199      -14.6565417336
 H        -5.0661167775       10.3156296053      -16.2856209026
 H         0.0953542328        4.8837861939      -10.1097471499
 H        -1.4616076235        5.9153478149       -9.9320498841
 H         0.0676717841        6.6396168449      -10.5577275987
 H        -0.1381491861        4.0341997774      -13.5077090427
 H         0.8096001186        3.8786605551      -12.0807320032
 H         1.0629982209        5.3198776067      -13.0604764349
 H        -5.1823861445        0.2817901301      -12.2062395825
 H        -6.6414622991        1.0183788075      -11.5657828888
 H        -6.2710145713       -0.7388101921      -11.3008497073
 H        -6.7946238693        1.3537931645       -8.6543484227
 H        -5.8224302963        0.0192524217       -7.8340331584
 H        -6.8482344915       -0.3118504907       -9.2641286409
 H         0.7267701405       -5.1799925748       -7.4634723302
 H         0.4968011301       -4.0982556126       -6.1937142020
 H         1.1718524557       -3.3444616105       -7.6815951863
 H        -0.2258061468       -4.9868718159       -9.7771706490
 H         0.2419259282       -3.2549688956       -9.8689771648
 H        -1.5835303578       -3.8976874772      -10.0126507306
 H        -3.4886719398       -9.6797792518       -3.4600810999
 H        -2.6690528568       -9.0234043473       -4.8522617459
 H        -4.1960521892       -8.2353548752       -4.2216478581
 H        -4.2754288249       -6.6352767148       -2.3108530988
 H        -2.7729675910       -6.2537620848       -1.3762533726
 H        -3.5650692330       -7.7535893560       -1.0226994167
 H         3.1546368397      -11.2271816316       -2.8283604123
 H         2.2518072120      -12.3847654658       -3.9232147679
 H         3.1928335090      -12.9587745396       -2.6345955793
 H         0.1140710042      -13.5001389588       -3.0217644745
 H        -0.5054945870      -13.1532208774       -1.5348148484
 H         0.9254030112      -14.1166032966       -1.7075302501
 H        -1.1923891858      -13.4946058849        4.7141559548
 H         0.5184436588      -12.9244808952        4.8405989082
 H         0.0563959302      -13.9339793758        3.4596510824
 H        -2.6091356738      -12.1736194601        2.4949688024
 H        -2.0437538844      -10.5582553170        2.5785168047
 H        -2.5604865340      -11.4568453727        4.1582170316
 H         4.4203126569       -5.9662452838        3.1115626160
 H         4.0905504800       -7.6317291184        2.3969662832
 H         3.8737869999       -7.3061249686        4.1746992574
 H         2.4917233211       -5.6320414066        4.5611001180
 H         0.7152204053       -5.4085356030        3.9822347020
 H         2.2221417231       -4.4821412758        3.3598298712
 Na        0.3500292862       -8.7703499926        0.3136255386
 Na       -5.6731068157        5.3221243209      -18.0665687263
