232

 C         2.9789966415       -5.1210567273        0.6188565838
 C         2.1337674361       -6.2032288737        1.3134541275
 O         1.3749737290       -6.8448979514        0.6317926548
 C         2.3849254929       -6.6563032209        2.8192295519
 C         1.5883468510       -7.9070631482        3.0415314334
 O         1.7195187901       -8.8894749186        2.3610461203
 C         0.7200603339       -8.1384445586        4.2530183019
 C        -0.3971081479       -9.1736714516        3.9916005802
 C        -0.0061396947      -10.5037909660        4.5429114500
 O         0.4702502824      -10.7214961084        5.6298818292
 C        -0.4716581887      -11.7088818480        3.6283281151
 C         0.2806682947      -11.4367297044        2.2082520384
 O        -0.2391161815      -10.7405057913        1.3943377277
 C         1.6112152630      -12.0652190000        1.9060238985
 C         1.6691524198      -12.6600536682        0.5068288268
 C         1.7514357455      -11.6180117994       -0.5458655710
 O         2.3473503035      -10.5329029055       -0.3309177538
 C         1.3341053247      -11.9353969901       -2.0520654165
 C         0.4761114360      -10.8443123673       -2.7092814465
 O        -0.6516526008      -11.0576792626       -3.1303323296
 C         1.0005568011       -9.4527603737       -2.8290920173
 C        -0.0182683996       -8.5378506901       -3.4150162156
 C        -1.1704726098       -8.2903336528       -2.4851795428
 O        -1.1514871978       -8.5153203031       -1.3003827705
 C        -2.5376952548       -7.5935631421       -3.1169978485
 C        -2.0452041956       -6.3764404132       -4.0216105166
 O        -1.6018368038       -5.4888834958       -3.3789065631
 C        -2.3069242306       -6.3480089697       -5.5942079057
 C        -2.4362851815       -4.8408463359       -6.0863583726
 C        -2.2289984726       -4.5869276496       -7.5931382896
 O        -3.1096678950       -4.7267104826       -8.4019535556
 C        -0.9405358324       -3.6950171488       -8.0752812470
 C        -1.2513254518       -2.2407789154       -7.6117174810
 O        -1.3260335527       -1.9136526469       -6.4628135053
 C        -1.7518970006       -1.2543680338       -8.8583705983
 C        -3.1496700852       -0.5418157345       -8.5114814355
 C        -3.9102767869       -0.2399766236       -9.7457921361
 O        -3.5517084110       -0.6570749326      -10.8340175978
 C        -5.2044192703        0.7080842040       -9.8801898737
 C        -4.5405370588        2.1677997980       -9.7238057209
 O        -4.4514324920        2.7910013811       -8.6861453434
 C        -3.8050533083        2.6468526773      -11.0426310349
 C        -2.6642648862        3.6097547088      -10.8311683876
 C        -2.0973411031        4.2868047864      -12.0546437212
 O        -2.4458581699        3.9597199060      -13.1765884520
 C        -1.0369003694        5.3870078841      -11.9777242656
 C        -1.5976211323        6.6808208593      -12.6509543194
 O        -1.6111118833        7.6384530563      -11.9394685919
 C        -2.1123811263        6.6481174130      -14.1218769252
 C        -3.5549237136        7.0445667664      -14.2676115992
 C        -4.3458140991        6.8396734455      -15.5740576574
 O        -4.6584558481        5.7132107070      -15.9380762507
 C        -4.7815227433        8.1652873174      -16.4814248942
 C        -3.8263606205        7.9462982525      -17.7238227580
 O        -4.2489351465        7.1123528334      -18.4962232611
 C        -2.4440113118        8.5479992546      -17.9345388459
 C        -1.8143513041        8.0850151859      -19.2780550413
 C        -1.4802674269        6.5397692222      -19.1049964423
 O        -0.8344304072        6.0908370212      -18.1700861440
 C        -2.0185275153        5.5082877566      -20.2474562465
 C        -2.7958816402        4.3243854254      -19.5259370192
 O        -3.9710771228        4.4907979994      -19.2756770260
 C        -2.1780543317        3.1057635498      -18.9621544025
 C        -2.7598447000        2.6722121104      -17.6178712579
 C        -3.8003350700        1.5451375319      -17.7518776987
 O        -3.8546249200        0.6891031492      -18.5955757091
 C        -4.9854135633        1.5521313716      -16.8291816556
 C        -6.0424911318        2.4714119520      -17.4879110836
 O        -6.4930463391        3.4468654930      -16.9647021833
 C        -6.6818121483        2.0173767654      -18.8895897291
 C        -6.5653603872        3.0590144315      -20.0497449938
 C        -7.7059187745        4.0891609330      -19.8752904812
 O        -7.5723720699        5.1990545308      -19.3682455735
 C        -9.1206035982        3.6982952951      -20.4949792410
 C        -9.4471354527        2.1694295861      -19.9360161484
 O        -9.3139260542        1.2162943004      -20.7350607825
 C        -9.9233436506        1.9315170989      -18.4593166051
 C       -10.4820234591        0.5216303704      -18.3383367807
 C       -11.6774206479        0.3974416653      -17.4276850423
 O       -12.3539146754        1.3853688613      -17.1387001495
 C       -12.2613826273       -1.0622015754      -17.1536052285
 C       -12.4927699870       -1.7285116801      -18.5188835255
 O       -11.6195098214       -2.5264668500      -18.8849149284
 C       -13.2595418805       -0.9556369412      -19.5787306366
 C       -11.1999785335       -1.8455157144      -16.3814042770
 C       -13.5311822431       -0.9807816283      -16.2740071348
 C       -10.1059800176        4.7969187946      -19.8832014665
 C        -8.8682196223        3.6634840987      -22.0258404206
 C        -5.5508649844        0.0498885703      -16.7756213331
 C        -4.7581409411        1.9047400379      -15.3554824870
 C        -2.7622599774        6.1952404814      -21.3822054607
 C        -0.7199075395        4.9561839437      -20.9572605542
 C        -6.2572748488        8.0794453360      -16.7364251760
 C        -4.4328916112        9.4282358269      -15.7135840516
 C        -0.6124251940        5.7326118238      -10.5234054765
 C         0.2291101364        4.9155912278      -12.8596354058
 C        -5.7640969552        0.4728228258      -11.2261204147
 C        -6.1601417826        0.6101785021       -8.6438101843
 C         0.3706308946       -4.1689952480       -7.3236038132
 C        -0.6787878985       -3.8747270408       -9.6018062023
 C        -3.1902031617       -8.7764950611       -3.9298736265
 C        -3.3294816059       -7.1219778113       -1.8848442408
 C         2.5852375493      -12.1988301939       -2.8811364730
 C         0.5038212205      -13.2671553463       -1.9827894984
 C        -0.1619693743      -13.1123099153        4.2026496754
 C        -1.9841655452      -11.5089876266        3.2193980355
 C         3.8633411870       -6.8839427467        3.0678042638
 C         1.7149951324       -5.4769056103        3.7308756308
 H         2.3399195125       -4.2778011161        0.1423853944
 H         3.5919581846       -5.5064973401       -0.1753983533
 H         3.6325980091       -4.5468399438        1.3244703509
 H         0.1500081799       -7.2596473833        4.6500493452
 H         1.3384751714       -8.4258597867        5.1532180724
 H        -0.5103325124       -9.1590673515        2.9147191258
 H        -1.2890076526       -8.9228059264        4.4747439195
 H         2.0903990597      -12.7441070045        2.6640333079
 H         2.3440049341      -11.1317002582        1.7866197770
 H         0.8096651098      -13.2544177025        0.3324240195
 H         2.5911506337      -13.2977924213        0.4066710839
 H         1.9390515349       -9.3924087616       -3.4218621575
 H         1.3411512896       -9.0446094496       -1.8693823458
 H        -0.4254058381       -8.7664334222       -4.4213103733
 H         0.4229733238       -7.5612604778       -3.7073351333
 H        -3.2483753107       -6.8824759256       -5.8789403217
 H        -1.4449509636       -6.8028129668       -6.1455858040
 H        -1.8546691152       -4.0157851150       -5.5622178218
 H        -3.4436310729       -4.5376176710       -5.8326766416
 H        -1.8551245776       -1.8399568855       -9.7118372499
 H        -1.0978010262       -0.4745701317       -9.1352171349
 H        -2.9558498608        0.4168783661       -7.9349860243
 H        -3.7616907116       -1.2110922772       -7.8829334103
 H        -4.5491301835        3.1112579109      -11.7974642248
 H        -3.3606703590        1.6630496758      -11.4957666365
 H        -1.9389830679        3.1331089353      -10.2258297356
 H        -3.0601453133        4.4480557366      -10.1927062416
 H        -1.9409067862        5.5721457528      -14.3798621353
 H        -1.3005896481        7.1848639397      -14.6809879750
 H        -3.6546966703        8.0930063104      -13.9680796157
 H        -4.1995660876        6.4944801366      -13.4772060618
 H        -1.8224490687        8.2522319145      -17.1197258125
 H        -2.6463652300        9.6598818324      -17.9873644762
 H        -0.8753210287        8.6207330490      -19.4763612267
 H        -2.5387138595        8.1528725085      -20.0814394601
 H        -1.1394997157        3.2774746085      -18.9385562351
 H        -2.2294577494        2.3309653338      -19.6802569853
 H        -3.1572761150        3.6009958752      -17.2752462326
 H        -1.8715249080        2.3089736739      -17.0752595255
 H        -7.6498003308        1.7493279012      -18.6178378707
 H        -6.2918880503        0.9995210932      -19.1168358648
 H        -6.7555409012        2.4153185713      -20.9445933420
 H        -5.4988024454        3.3771038459      -20.2076359165
 H       -10.6920128099        2.6668383169      -18.1869760146
 H        -9.1067083296        2.0239450006      -17.7486202667
 H        -9.7182746270       -0.1663297261      -17.8933595196
 H       -10.6281857913        0.1874977872      -19.3708603118
 H       -12.5352155422       -0.3755589262      -20.1780671013
 H       -13.8063102807       -0.0811619204      -19.2171147348
 H       -13.8768529220       -1.6197381660      -20.2138786221
 H       -10.3363017684       -2.0481912586      -16.9853914255
 H       -11.5365125938       -2.8392621401      -16.0789809592
 H       -10.9683199188       -1.4159239063      -15.4605121711
 H       -13.4298305750       -1.5622181658      -15.3604296705
 H       -14.3575674883       -1.4134869890      -16.7400873568
 H       -13.7351280414        0.0047153805      -15.9613548780
 H        -9.8726773796        5.0080270864      -18.8369996060
 H       -11.0604796556        4.5436343417      -20.1591077626
 H       -10.0039803927        5.6853387849      -20.3600947241
 H        -8.4719158113        2.7922182167      -22.4167680083
 H        -8.3158484425        4.5398207382      -22.3695213037
 H        -9.8296251650        3.7250995125      -22.5602464013
 H        -6.1996382567        0.0086974901      -15.9188322136
 H        -4.8258456403       -0.7308097947      -16.7392596292
 H        -6.0815411656       -0.2062436139      -17.6706289362
 H        -4.3493876623        0.9982143140      -14.8340242109
 H        -5.6893359239        2.0412122295      -14.8528623159
 H        -3.9595490706        2.6504877545      -15.1237548790
 H        -2.1537785191        7.0937990379      -21.6180480941
 H        -3.8387061932        6.4990511222      -21.1803706283
 H        -2.7717708304        5.5351196298      -22.3218664713
 H         0.1212217199        5.4569859014      -20.7048065912
 H        -0.8207707445        5.0458422694      -22.0041759877
 H        -0.5124446301        3.8991970564      -20.7555488450
 H        -6.5653552407        9.1733024962      -16.9245464995
 H        -6.8111224549        7.8539188792      -15.8229868490
 H        -6.5381641892        7.5718027062      -17.6609349345
 H        -3.3305416694        9.3849082406      -15.3360868304
 H        -4.9260961254        9.5418913104      -14.6934122517
 H        -4.6224111927       10.3773300786      -16.2712009293
 H        -0.2863168145        4.8557740121       -9.9791258612
 H        -1.5559156629        6.1424366485      -10.0914425326
 H         0.2361375368        6.4642992333      -10.4731290031
 H         0.1071633336        4.8052440930      -13.9662067404
 H         0.5477245634        3.9101939202      -12.5306652149
 H         1.0613110140        5.5424639512      -12.6217642763
 H        -5.0792568348        0.3766591076      -12.0520392283
 H        -6.4543385177        1.3368037820      -11.5550185697
 H        -6.3596374136       -0.4386915102      -11.3245639539
 H        -6.9728836319        1.4073339610       -8.7252427487
 H        -5.4459578751        0.8447402389       -7.8555459655
 H        -6.5618802324       -0.4208804467       -8.5521269512
 H         0.8139350730       -5.1581697783       -7.3178756501
 H         0.2014591070       -4.0306114913       -6.2482274456
 H         1.0163261679       -3.2883954309       -7.5176657674
 H        -0.3418359773       -4.9259629414       -9.6538066618
 H         0.0954545608       -3.2254921267       -9.9315574235
 H        -1.6361983526       -3.8225951950      -10.0153153483
 H        -3.2200514429       -9.7283884461       -3.4286691586
 H        -2.6313688757       -8.9567413002       -4.8364750736
 H        -4.2678534920       -8.5012064599       -4.2188405117
 H        -4.4243738201       -6.9953511213       -2.1963025686
 H        -2.9782828975       -6.2094667472       -1.3427285757
 H        -3.2583462778       -7.8585980329       -1.0988181044
 H         3.3740705313      -11.5720353363       -2.5277826181
 H         2.3847325253      -12.0314392153       -3.8913684684
 H         2.9405808983      -13.2493584500       -2.8947919913
 H         0.0814377740      -13.5082726413       -2.9676663315
 H        -0.3108072975      -13.3149566880       -1.3262039367
 H         1.1041078122      -14.1797721743       -1.8364207182
 H        -0.9685022183      -13.8998877900        4.3256615803
 H         0.4255784130      -12.9974257161        5.1595996888
 H         0.5935766853      -13.5206003348        3.5060787928
 H        -2.2522657445      -12.1164586173        2.3431181305
 H        -2.1561768301      -10.5090551118        2.8352193892
 H        -2.5374703594      -11.8820421459        4.1017303196
 H         4.3369577923       -5.8783207198        3.0092098371
 H         4.1979376132       -7.5799447789        2.2802268240
 H         4.0964341934       -7.2673382382        4.1020076648
 H         1.9758239109       -5.6624852730        4.8148145419
 H         0.6264629906       -5.4948303120        3.5304926940
 H         2.2434724455       -4.5509411126        3.4530277439
 Na        0.5053825187       -9.0796651144        0.2489042053
 Na       -5.6589750432        5.2635498419      -18.0168526692
