232

 C         3.3160045499       -5.5471175521        0.3777072562
 C         2.3601067452       -6.3996706185        1.0768401195
 O         1.4237978034       -6.8670935576        0.4439807929
 C         2.3469772866       -6.5197673307        2.6195211949
 C         1.4517291818       -7.8042389030        3.0191566819
 O         1.6993681960       -8.8789860244        2.5231106195
 C         0.4910083535       -7.7679015666        4.2105735842
 C        -0.6140256330       -8.9988919223        4.1478676516
 C        -0.1101682515      -10.3094828690        4.6535089923
 O         0.4650102992      -10.5146829451        5.6666249817
 C        -0.4012805921      -11.7533330603        3.6729598315
 C         0.1853569101      -11.4590545384        2.2974095894
 O        -0.4699224213      -10.8578534708        1.4573592189
 C         1.6777053417      -11.7678604057        1.8805583187
 C         1.8107662934      -12.5625428978        0.5350109181
 C         1.8426287658      -11.7367829900       -0.7053196206
 O         2.4529631881      -10.6804561124       -0.6424757895
 C         1.3346861471      -12.2100838016       -2.1628109940
 C         0.3526628013      -11.0514758635       -2.7631913079
 O        -0.8306405959      -11.3404164450       -2.7997393874
 C         0.9895963173       -9.7375746307       -3.3503842618
 C         0.0390361560       -8.6320220545       -3.6839315206
 C        -1.1048208852       -8.3574760142       -2.6976232315
 O        -1.0241708755       -8.4864536732       -1.4992420764
 C        -2.3723453937       -7.6678703072       -3.3467402229
 C        -1.8808373040       -6.3589859934       -4.0830783870
 O        -1.5436275912       -5.4245606700       -3.4321530814
 C        -1.9312958892       -6.2320164989       -5.6748617529
 C        -2.5880715256       -4.8456030181       -6.0437672737
 C        -2.4484358619       -4.4524483346       -7.5913098069
 O        -3.3246398714       -4.8269487136       -8.3339788155
 C        -1.0983307764       -3.6050344715       -7.9224871016
 C        -1.3852146645       -2.1788646713       -7.5582065734
 O        -1.3404256221       -1.8333025441       -6.3810092896
 C        -1.7427265414       -1.1285355072       -8.6806695553
 C        -3.0717157722       -0.3784660984       -8.4546746563
 C        -3.9580184653       -0.1731780035       -9.7481504522
 O        -3.8333339800       -0.7827703325      -10.8216005837
 C        -5.0970185657        0.9823103522       -9.5615683284
 C        -4.2598378553        2.3178765337       -9.6245919051
 O        -3.9271498340        2.8887050196       -8.6047906550
 C        -3.6713589483        2.6572945790      -11.0355727928
 C        -2.3450329894        3.4739871987      -10.9052595919
 C        -1.9401392146        4.2499770829      -12.1227203853
 O        -2.1907833176        3.9125464881      -13.2515175062
 C        -1.0066511643        5.4929274961      -12.0671669290
 C        -1.7925893137        6.7632097644      -12.6263892644
 O        -1.9582450777        7.7354599035      -11.9513480943
 C        -2.3915172512        6.6936331988      -14.0466454730
 C        -3.9368931020        7.0760499067      -13.9780956759
 C        -4.4380042270        6.8825301238      -15.4175923740
 O        -4.6407223303        5.7258145108      -15.8221994677
 C        -4.7051922253        8.1008229803      -16.4500181781
 C        -3.8544621021        7.8896571097      -17.7421591251
 O        -4.3554431653        7.3279287613      -18.6963375699
 C        -2.3601365862        8.3811877497      -17.9162490400
 C        -1.6528346847        7.7530414738      -19.1367297405
 C        -1.6013719402        6.2727057334      -18.9941023835
 O        -1.1931659842        5.8167399507      -17.9030013361
 C        -2.0269168409        5.3621905597      -20.2016102937
 C        -2.8355145023        4.3314964393      -19.3099215970
 O        -4.0570043947        4.3929173677      -19.3896562533
 C        -2.0420734170        3.3271030578      -18.4997720602
 C        -2.8113581574        2.8739339349      -17.2322474776
 C        -3.6573111577        1.7032067671      -17.6247131245
 O        -3.5890223766        1.1177981367      -18.7028223832
 C        -4.9834986834        1.4771869103      -16.7748428809
 C        -6.1292448724        2.2556176068      -17.5111995110
 O        -6.4363275098        3.2700014148      -16.9446490452
 C        -6.7712689071        1.7864979491      -18.8191653376
 C        -6.7494305498        2.9091509124      -19.9304534027
 C        -7.7440513679        3.9709415297      -19.8344021282
 O        -7.5916176941        5.0466902659      -19.2636264342
 C        -9.1460913149        3.5992346394      -20.3580743332
 C        -9.4397459492        2.1374133069      -19.9230577462
 O        -9.2876417308        1.1296202494      -20.6268769360
 C        -9.9529496842        1.9621485018      -18.5096876881
 C       -10.1100419712        0.4875646204      -18.0940866294
 C       -11.5474831491        0.3185891637      -17.5282923802
 O       -12.1805580235        1.2839779080      -17.1664398367
 C       -12.2661327392       -1.0837110445      -17.4177623238
 C       -12.6489664909       -1.5006993513      -18.9373029365
 O       -12.2757504288       -2.5960450939      -19.3544848204
 C       -13.6394832381       -0.5538126878      -19.6575670886
 C       -11.3971562125       -2.0823766681      -16.6128413911
 C       -13.6405817054       -0.9455089323      -16.6346930891
 C       -10.2508348212        4.5457448011      -19.7485502298
 C        -9.0315919729        3.6266602930      -21.9030045471
 C        -5.4671592193       -0.0304994168      -16.5569809500
 C        -4.7643543540        1.8920290996      -15.2345029702
 C        -3.0171285033        5.9158935313      -21.3216835066
 C        -0.8370308115        4.9275497649      -21.0936406217
 C        -6.2328378704        8.0758595036      -16.7206347780
 C        -4.2670689387        9.4920144925      -16.0237181485
 C        -0.6026617164        5.8474031642      -10.6005032176
 C         0.2832835454        5.2577014537      -12.9522629835
 C        -6.0681724650        0.8087577638      -10.7513870992
 C        -5.7587348349        0.7992772230       -8.1714255176
 C         0.1340722968       -4.0058076559       -7.1659996036
 C        -0.7658226545       -3.8745995125       -9.4841039765
 C        -3.0449176998       -8.6469124725       -4.3147453977
 C        -3.4368174339       -7.0861311796       -2.2577510144
 C         2.6186184702      -12.3556692369       -3.1047877884
 C         0.6487730419      -13.5149214458       -2.1694985221
 C         0.3596606892      -12.8056618905        4.5701333448
 C        -1.9017773212      -11.9051241020        3.6220542494
 C         3.8783963561       -6.9673106197        3.1178479886
 C         1.9977192978       -5.1257524106        3.2754402446
 H         3.3249133375       -5.8282083373       -0.6700982282
 H         4.2746588900       -5.8058605462        0.6910883596
 H         3.1774921164       -4.4944510947        0.5079301184
 H        -0.0918430772       -6.8878370596        4.3851742182
 H         1.1310716551       -7.8653560486        5.1004690754
 H        -0.8077221818       -9.0444401086        2.9987574297
 H        -1.5384360675       -8.8031027362        4.7372038996
 H         2.0981385480      -12.3684403094        2.5753073792
 H         2.3059256357      -10.8949151896        1.8209733544
 H         1.0873278171      -13.3982031536        0.5934036726
 H         2.8795548078      -12.9379735254        0.5299382141
 H         1.5452174167       -9.9507613118       -4.2953706796
 H         1.7170916537       -9.4927067479       -2.5961478718
 H        -0.3814957287       -8.8793464604       -4.6939014700
 H         0.4940659181       -7.6543929113       -3.8725329370
 H        -2.3685503329       -7.1102190220       -6.1352667577
 H        -0.8917630711       -6.2155855923       -6.1020512214
 H        -2.2560631331       -3.9736565275       -5.3769999979
 H        -3.6528749310       -4.8442464964       -5.7879746937
 H        -1.7647582521       -1.6201070757       -9.6905867045
 H        -0.9040392228       -0.4153124014       -8.7134166574
 H        -2.9929113409        0.5849593321       -7.8970165793
 H        -3.6191355984       -0.9802658631       -7.7504331278
 H        -4.3810648636        3.2185164722      -11.5275558906
 H        -3.4485340223        1.7916360076      -11.6804632132
 H        -1.4209512387        2.8557867863      -10.7706586878
 H        -2.3517304684        4.1473108215      -10.0791760732
 H        -2.0669720040        5.7363626810      -14.3263386731
 H        -1.8692021289        7.4147091922      -14.7166901063
 H        -3.9006629250        8.0949894938      -13.6088636592
 H        -4.5744874461        6.5344198680      -13.3178468412
 H        -1.8636070214        8.1198864183      -17.0072113931
 H        -2.2736496978        9.4576342676      -18.1261658650
 H        -0.6214001714        8.0858573301      -19.1933478285
 H        -2.1654310752        7.9553311571      -20.0215158775
 H        -1.0272603758        3.8041239710      -18.3439647398
 H        -1.7150308412        2.4474248432      -19.1056503262
 H        -3.4563390262        3.7594823632      -17.0061653087
 H        -2.0276744945        2.6318195875      -16.5094435249
 H        -7.6898029793        1.4785733965      -18.5403366694
 H        -6.3326808208        0.8326113385      -19.0152989052
 H        -6.8040083596        2.3609310430      -20.8766159608
 H        -5.7664488328        3.3502635088      -19.8559623921
 H       -10.9552130240        2.4169277183      -18.3764621175
 H        -9.3166819353        2.3443407449      -17.7274429006
 H        -9.3339803890        0.2916324132      -17.2560987710
 H        -9.9638798859       -0.1729414777      -18.8512079901
 H       -13.8857721919       -0.8279722228      -20.6339656445
 H       -13.1918455808        0.4219994899      -19.8050329797
 H       -14.5557858408       -0.5535682726      -19.0609720367
 H       -10.3358920461       -2.0369918363      -17.0097260954
 H       -11.7854649920       -3.0882042769      -16.4821297717
 H       -11.3897625095       -1.8073141201      -15.5131826173
 H       -14.3490002634       -1.6810855862      -17.0001913887
 H       -14.1273193198        0.0573015975      -16.8170427175
 H       -13.5236701070       -1.1179759358      -15.5173174041
 H        -9.9632566201        4.5641909693      -18.6078292026
 H       -11.2940662383        4.2507651942      -20.0386146611
 H       -10.0741611379        5.5927333528      -19.9426266784
 H        -8.0898615113        3.1391129342      -22.1426857706
 H        -9.0005635434        4.6397763325      -22.3359857950
 H        -9.7821156775        3.1228125177      -22.5466775502
 H        -6.4067223019       -0.0613086576      -16.0278859677
 H        -4.7790668114       -0.5036702467      -15.8007884479
 H        -5.3959445048       -0.6767976456      -17.4441944124
 H        -3.8203478220        1.5691647834      -14.8469649090
 H        -5.5957958571        1.4520785505      -14.7052056079
 H        -4.6481459375        2.9861673045      -15.0512586810
 H        -2.4874200287        6.3063742650      -22.0736493119
 H        -3.7950108804        6.5672981813      -21.0392855761
 H        -3.4538092078        5.0690979846      -21.7512689716
 H        -0.5996489190        5.7810132677      -21.7318327272
 H        -1.0748124202        4.0699060165      -21.7667832102
 H         0.1536878617        4.6255287571      -20.5843152365
 H        -6.8476259305        8.9589025120      -16.5900539487
 H        -6.6373872783        7.2467512522      -16.1618600160
 H        -6.2604152336        8.0075928763      -17.7668827617
 H        -3.2038289661        9.6500928260      -15.9512804213
 H        -4.5451615894        9.9412673500      -15.0949885987
 H        -4.5009587226       10.0719454741      -16.8296761892
 H         0.1530139706        5.1351382369      -10.3019049802
 H        -1.4490249320        5.8275082922       -9.9153565119
 H        -0.0262341817        6.7216611653      -10.5963347806
 H         0.1670000432        5.8066572061      -13.8974053289
 H         0.5643373656        4.2253525435      -13.1565023867
 H         1.1430071496        5.7602384425      -12.5453033820
 H        -5.4864148536        0.8385812814      -11.6342272110
 H        -6.8336590828        1.6014023114      -10.9761763834
 H        -6.6422859843       -0.1364892837      -10.7195031492
 H        -6.8169339836        0.5164750081       -8.1424021303
 H        -5.5138288792        1.6217921101       -7.6205292769
 H        -5.2328047920       -0.0361631652       -7.7952303281
 H         0.1457548833       -5.0850967529       -7.2458245658
 H         0.0812585638       -3.8315959780       -6.1251873685
 H         1.0994385910       -3.6146905896       -7.5870798319
 H        -0.4775187358       -4.9551802204       -9.3506481641
 H         0.0699662731       -3.1531393226       -9.7735811242
 H        -1.6748207169       -3.7578267699      -10.0823289818
 H        -3.4919993557       -9.4842935085       -3.8104190001
 H        -2.1887713636       -8.9856150557       -4.9119623789
 H        -3.8209583244       -8.1870579858       -4.9891334544
 H        -4.2603851823       -6.7615102233       -2.8929160855
 H        -2.9981356675       -6.4324882673       -1.5254531306
 H        -3.8695142289       -7.8343049410       -1.6655808588
 H         3.2932663038      -11.4573005122       -3.1543961267
 H         2.2658799391      -12.7127999307       -4.0977632790
 H         3.2926883760      -13.1421311219       -2.7786403636
 H         0.5661649192      -14.0925616216       -3.0695009712
 H        -0.2718707159      -13.4204026859       -1.6643827188
 H         1.1978776487      -14.2499293108       -1.5035287778
 H         0.6085794762      -13.7025556779        4.0002116371
 H        -0.2887118775      -13.1261522659        5.3269762292
 H         1.2339615911      -12.4936938123        5.0572116030
 H        -2.1081354323      -12.8843020909        3.1920881712
 H        -2.3321597383      -11.1606133530        2.9882583685
 H        -2.2072374636      -11.9024167695        4.6603453018
 H         4.5225729798       -6.1723064718        2.8071316662
 H         4.1188537572       -7.9015874765        2.7171643217
 H         4.0390560136       -7.0070667955        4.1854410886
 H         2.0837721962       -5.2295700441        4.3696844726
 H         0.9754016071       -4.9572331558        3.1167158966
 H         2.5464436327       -4.3793190731        2.7247719972
 Na        0.7022411852       -9.0747609246        0.0577056780
 Na       -5.6047755932        5.4352715441      -17.8780300987
