232

 C         3.4888492741       -5.5663011287        0.1983320522
 C         2.3884311836       -6.4674153282        0.9985257986
 O         1.5067247195       -6.9516283833        0.3573246282
 C         2.3990760648       -6.5990127059        2.6490899874
 C         1.4827354705       -7.7756156851        3.1493015663
 O         1.5990050179       -8.8066663668        2.5233339694
 C         0.3641899074       -7.7172474008        4.2207077516
 C        -0.5898402866       -8.9418387276        3.9865930908
 C         0.0172405145      -10.2644694576        4.5690600502
 O         0.5169573980      -10.2783850707        5.6955774192
 C        -0.2493343897      -11.5519759600        3.7584249099
 C         0.2393143661      -11.3156582290        2.1791741593
 O        -0.5454134466      -10.7353933721        1.4846744763
 C         1.5797143642      -11.9093935433        1.7997754889
 C         1.7146471871      -12.6936344630        0.5006870273
 C         1.9536536623      -11.7392835767       -0.7621948924
 O         2.5017139678      -10.6074210827       -0.6415484478
 C         1.3837584568      -12.2903316054       -2.1763979595
 C         0.3575356807      -11.1701078685       -2.8276028019
 O        -0.8136791426      -11.2620126160       -2.6898941218
 C         0.9777416616       -9.9651990140       -3.4393920016
 C         0.0747259666       -8.7812554480       -3.7557130933
 C        -1.0988381333       -8.2986244893       -2.7891616459
 O        -1.0072852411       -8.3523728027       -1.5652626361
 C        -2.3123544543       -7.6904916669       -3.5042436872
 C        -1.8459159883       -6.2958438765       -4.1214272114
 O        -1.4653631943       -5.3929993597       -3.4248424930
 C        -1.9165443618       -6.2229847246       -5.6403667316
 C        -2.5500225711       -4.8661051040       -5.9688531337
 C        -2.4514375193       -4.5569918923       -7.4316535383
 O        -3.2708206291       -4.8030708421       -8.2823046602
 C        -1.2115101281       -3.7861542115       -7.8721131914
 C        -1.4743153204       -2.1073159181       -7.5040460371
 O        -1.4298050725       -1.7561731624       -6.4131357060
 C        -1.6536001925       -1.0941491666       -8.7501303219
 C        -3.0605894012       -0.4986853826       -8.5184940331
 C        -3.9320421191       -0.1119714455       -9.6911928386
 O        -4.0397726287       -0.6816999582      -10.7151769545
 C        -4.9682425653        1.0215592143       -9.4337786255
 C        -4.0786500308        2.2886658211       -9.5928944847
 O        -3.8064637515        2.8989223094       -8.5914426761
 C        -3.6262113244        2.6949567729      -10.9943219206
 C        -2.3102307034        3.4830150361      -10.9442660699
 C        -1.8253500537        4.2719431870      -12.2430546715
 O        -2.1067966481        3.9565292171      -13.3857017600
 C        -0.8814938663        5.6009871212      -12.1113713081
 C        -1.8668168114        6.7190844046      -12.5356313665
 O        -2.0533262197        7.6527606638      -11.8035549510
 C        -2.5637652538        6.7341668879      -13.9681490879
 C        -4.0037669255        7.1385014484      -14.0959974578
 C        -4.4690571369        6.9331995954      -15.4878284285
 O        -4.6456893479        5.7811005338      -15.8797668029
 C        -4.6407107323        8.1583188359      -16.4740939524
 C        -3.8184477728        7.8742320341      -17.8057736923
 O        -4.3838856604        7.2579515816      -18.6667572923
 C        -2.4136575817        8.3940524107      -17.9313329034
 C        -1.7547005276        7.8033711558      -19.1904482730
 C        -1.5915667138        6.2720247715      -18.9635434323
 O        -1.1933697184        5.8373769828      -17.9241538704
 C        -2.0494545629        5.2505776429      -20.2283451475
 C        -2.8050467226        4.1473836040      -19.3437859243
 O        -3.9880758599        4.2589393015      -19.1786031337
 C        -2.0032996689        3.2702453551      -18.4483539982
 C        -2.8328720838        2.9002064183      -17.1717793410
 C        -3.7192206062        1.7373269892      -17.5856708364
 O        -3.4283877987        1.0558394383      -18.4918299999
 C        -4.9676033316        1.4160950571      -16.6136611599
 C        -6.1215140544        2.2363344372      -17.4302189318
 O        -6.4751005046        3.3421508789      -17.1361385119
 C        -6.7469288761        1.6641897340      -18.7657313524
 C        -6.7726837724        2.7915362040      -19.8455983103
 C        -7.8045602351        3.8307163987      -19.6972231599
 O        -7.6607244764        4.9166825726      -19.1283258788
 C        -9.2191511833        3.5563090671      -20.3924417290
 C        -9.6155360017        2.0925462750      -19.9457343295
 O        -9.2399284487        1.1237392872      -20.6493929210
 C       -10.0181450381        1.9606293084      -18.4482678493
 C       -10.1198279858        0.4962425615      -17.8459158788
 C       -11.6248622601        0.2503106194      -17.4987502439
 O       -12.1540678454        1.3050913875      -17.0799849579
 C       -12.3743299892       -1.0882293481      -17.5189945259
 C       -12.8046481637       -1.5291130801      -18.9764367859
 O       -12.4831779120       -2.5708379126      -19.4900788197
 C       -13.7045935905       -0.5360577712      -19.6180731702
 C       -11.4428688477       -2.1076298148      -16.9124480512
 C       -13.7148998153       -0.9840008190      -16.7795975588
 C       -10.1750859179        4.6100867891      -19.8075813532
 C        -9.1749805010        3.7680370335      -21.9977802054
 C        -5.1593649961       -0.1377101943      -16.7794013157
 C        -4.7777844705        2.0288779779      -15.2605370161
 C        -3.0491623529        5.9501752944      -21.1792453640
 C        -0.7766094189        4.7945330252      -20.9124238430
 C        -6.2610711779        8.1659951802      -16.7569631440
 C        -4.2964168337        9.6137070470      -15.8124873225
 C        -0.5085580910        6.0348239869      -10.5765961610
 C         0.2797101597        5.2732231503      -12.9645940110
 C        -6.0013744580        0.8228541723      -10.5364859017
 C        -5.6884140663        0.9879745073       -8.0250525994
 C         0.0771522877       -4.0238977393       -7.0794574062
 C        -0.8902890502       -3.8399373397       -9.4341250412
 C        -3.0968282769       -8.5860782592       -4.5314630503
 C        -3.2352725345       -7.2125825722       -2.4322561544
 C         2.6099105398      -12.4137295800       -3.1884264187
 C         0.7104419870      -13.6361038503       -2.0841067044
 C         0.5081971636      -12.7319205554        4.4707047337
 C        -1.7570724134      -11.9575706588        3.7641578594
 C         3.7139440581       -7.1112892967        3.1331520626
 C         1.9524251259       -5.2150855173        3.0736995702
 H         3.6890971231       -6.0260293336       -0.8127298427
 H         4.4394448278       -5.4259592470        0.6494532941
 H         3.0425169874       -4.5760682368        0.0782691540
 H        -0.3245188547       -6.8242158544        4.1227692956
 H         0.5648517763       -7.7469428304        5.3429732891
 H        -0.7642073207       -8.9857364212        2.9158160661
 H        -1.5153893442       -8.7568271409        4.5563563029
 H         2.0535807385      -12.4890519122        2.6987244339
 H         2.2663432028      -11.0168585948        1.7084875596
 H         0.8118966488      -13.2848183001        0.4123676283
 H         2.6686023871      -13.3484277718        0.5309251979
 H         1.4084052765      -10.2800567401       -4.4176052770
 H         1.8128292325       -9.6854121110       -2.7580095542
 H        -0.3317291386       -8.8993745746       -4.8102640335
 H         0.7235102793       -7.8511666963       -3.8387215551
 H        -2.3828580851       -7.1710234040       -6.1053991583
 H        -0.8396861579       -6.3080349594       -6.0423134123
 H        -2.1928694745       -4.0066353154       -5.3134896526
 H        -3.6497462983       -4.8775314321       -5.6795388887
 H        -1.6140893416       -1.6008236971       -9.6277607009
 H        -0.9040032705       -0.3687409822       -8.7160141594
 H        -3.0944420401        0.3489721334       -7.7838480515
 H        -3.6309309948       -1.2168439060       -7.9347232811
 H        -4.4589536690        3.2088228533      -11.6610421467
 H        -3.3286180646        1.7872939320      -11.5457297355
 H        -1.4784339579        2.9082064750      -10.7029848189
 H        -2.3616388011        4.2896236200      -10.1694140772
 H        -2.4231887876        5.6141248712      -14.2431135191
 H        -1.9064616256        7.2450929117      -14.7010391912
 H        -4.1223994809        8.1714243763      -13.8627512009
 H        -4.6566344430        6.6428462208      -13.2972668147
 H        -1.9234646921        8.1061825464      -17.0606785675
 H        -2.3218510746        9.4945109785      -18.0433434839
 H        -0.7777251487        8.1912745389      -19.2925692015
 H        -2.3028433944        7.9987924038      -20.0901547700
 H        -1.0080194929        3.6344010922      -18.3416328862
 H        -1.7694165711        2.3291106439      -18.9437032709
 H        -3.3308588500        3.8201206454      -16.8832040175
 H        -1.9946182717        2.5706678416      -16.5004112383
 H        -7.7302652031        1.2259989380      -18.5255233974
 H        -6.1716178523        0.7765893295      -18.9636274450
 H        -6.8984581398        2.2441760604      -20.8060539787
 H        -5.7298333998        3.2196533708      -19.7828232365
 H       -11.0765495865        2.2413254317      -18.5126832209
 H        -9.5360482851        2.5805174708      -17.7092471549
 H        -9.5473555640        0.4106391742      -16.9304250887
 H        -9.8081174732       -0.2754216918      -18.5712975687
 H       -14.3483390457       -0.9899533007      -20.4834393065
 H       -13.1059115448        0.1816627183      -20.1138509866
 H       -14.3726530104       -0.0867293647      -18.9329092091
 H       -10.4355454062       -2.0120470555      -17.3460400899
 H       -11.8949035557       -3.1520420797      -16.9049900101
 H       -11.3705793220       -1.9921746519      -15.8533623560
 H       -14.6327759334       -1.3250818846      -17.3805982901
 H       -13.8914146799        0.0015847336      -16.4915367039
 H       -13.6983860233       -1.5823676195      -15.9000717896
 H       -10.1303338602        4.4490509231      -18.7330804177
 H       -11.1827603419        4.5916985162      -20.2092951354
 H        -9.6950442553        5.5851344482      -19.8235496488
 H        -8.2135215667        3.5221867883      -22.3426570529
 H        -9.4417249973        4.7539143219      -22.3764635550
 H        -9.8445762894        3.1117331116      -22.5725291302
 H        -6.2021955746       -0.4216710084      -16.7386422120
 H        -4.7403171608       -0.7070901707      -16.0023900748
 H        -4.6708320034       -0.3924428272      -17.7047122866
 H        -3.6504430319        2.1063571684      -14.9657369950
 H        -5.3933372673        1.5363522454      -14.5104373178
 H        -5.0029142372        3.1118046570      -15.2843224465
 H        -2.5359029987        6.4834821478      -21.9720511942
 H        -3.7505157939        6.4904380899      -20.6887439291
 H        -3.5827209107        5.1281926045      -21.7382799178
 H        -0.4940318025        5.3719130912      -21.7297288289
 H        -0.7366571829        3.7500085499      -21.1951245533
 H         0.0041891289        4.8267471818      -20.1378196381
 H        -6.6361448681        9.0734783563      -16.2335321606
 H        -6.6604180666        7.3358526350      -16.2641146520
 H        -6.5608798958        8.4408125868      -17.7346345358
 H        -3.1995741345        9.6590560664      -15.3802799746
 H        -4.8172975103        9.8744350308      -14.9100105417
 H        -4.2692457925       10.4584622802      -16.5091863930
 H         0.3545434674        5.5453666130      -10.1771835527
 H        -1.3947288135        5.8101331833       -9.9710953634
 H        -0.1622910308        7.1195085938      -10.5463450322
 H         0.1124481749        5.4840022038      -14.0425044036
 H         0.5984622030        4.2257873853      -12.7935385469
 H         1.1372996635        5.8949689048      -12.7694661357
 H        -5.6937756068        0.9800786011      -11.6235771549
 H        -6.8052737987        1.6478236223      -10.4274024857
 H        -6.5853166179       -0.0839980234      -10.3897450995
 H        -6.7803428950        0.9557300094       -8.0085041723
 H        -5.2417077912        1.8629950161       -7.5511005286
 H        -5.3469991462        0.0943135508       -7.5258677359
 H         0.5335975502       -5.0573994797       -7.0910483177
 H        -0.2062176458       -3.7938448882       -5.9982997975
 H         0.8857408032       -3.3274111881       -7.3830974316
 H        -0.7195255545       -4.9220698923       -9.3370987527
 H        -0.0328838153       -3.2343165219       -9.6461160117
 H        -1.7653796313       -3.6018065966      -10.0706756218
 H        -3.5828004799       -9.4293044921       -4.0255839230
 H        -2.3112838004       -8.9085642488       -5.2122769298
 H        -3.9015486092       -8.0329410133       -5.1339288583
 H        -4.0428885941       -6.5862581936       -2.8266537563
 H        -2.6273107185       -6.8776533662       -1.6001098476
 H        -3.7888437895       -8.0730336152       -1.9997720217
 H         3.0280093459      -11.5226664625       -3.6007525172
 H         2.3964964030      -13.1202804272       -3.9370327288
 H         3.5349372132      -12.8358595328       -2.6337916754
 H         0.5450777542      -14.1326613131       -3.0350168191
 H        -0.1507531123      -13.6081748279       -1.4820999248
 H         1.3287338863      -14.3514220813       -1.5980176466
 H         1.0442933747      -13.3907273370        3.8134073794
 H        -0.1604356777      -13.4510508056        5.0308502468
 H         1.2119002587      -12.4195639134        5.2380117515
 H        -1.6623179811      -13.0491234680        3.6927800708
 H        -2.2927781998      -11.5567099510        2.8758236635
 H        -2.2224951138      -11.6842133744        4.7427984703
 H         4.4725655651       -6.3953045716        2.8571513859
 H         3.8830882469       -8.1415414126        2.8129404979
 H         3.7446213689       -7.1212162193        4.2275010647
 H         2.0789203637       -5.0680514847        4.1448205068
 H         0.8333140019       -5.2524679614        2.9600733079
 H         2.2922983563       -4.5027262605        2.3259850660
 Na        0.5777362721       -8.9945465267        0.1183453845
 Na       -5.6036304831        5.4042806872      -17.9575815477
