232

 C         3.6255654460       -5.7654597615        0.4067168645
 C         2.4790312092       -6.6160016273        0.8871150753
 O         1.6993642875       -7.2186953883        0.1809847811
 C         2.3147960563       -6.7187735968        2.4686079437
 C         1.3241157382       -7.8477143789        2.8711389608
 O         1.4776465481       -8.9154792510        2.2998753080
 C         0.2444447670       -7.5644445200        3.8426602444
 C        -0.7669940936       -8.7784234059        3.9747891268
 C         0.0758801851       -9.9878494268        4.4092139361
 O         0.7217592867       -9.9341928281        5.4130618783
 C        -0.0225625718      -11.4569165994        3.7827907234
 C         0.4335829226      -11.2413208446        2.3657516637
 O        -0.3742290390      -10.6508282479        1.5916770600
 C         1.7680852393      -11.7579168682        1.6841758376
 C         1.3275659136      -12.5858995008        0.4442972130
 C         1.7246046430      -11.7180657238       -0.8248052613
 O         2.1854975440      -10.6272813285       -0.8221077354
 C         1.4377498316      -12.3719445541       -2.2921587195
 C         0.4289094313      -11.3037654833       -2.7969501613
 O        -0.7276187067      -11.3846461600       -2.3831057685
 C         1.0092571534      -10.0152870612       -3.4327281189
 C         0.0338257606       -8.9899462148       -3.9816848738
 C        -0.8915062797       -8.3973376428       -2.9669763491
 O        -0.6513923641       -8.4132684779       -1.7878973852
 C        -2.2673021727       -7.7439053926       -3.5015963818
 C        -1.8064297223       -6.3734450608       -4.1174449170
 O        -1.2139915146       -5.5883486431       -3.4312298670
 C        -1.8522326942       -6.0394326230       -5.6678700750
 C        -2.5845570345       -4.7374384992       -5.8640119820
 C        -2.4248156577       -4.3613298683       -7.3539181913
 O        -3.1924333880       -4.7592999344       -8.1908383694
 C        -1.1416872371       -3.6677021218       -7.8885566312
 C        -1.4679227971       -2.0725486837       -7.6251768766
 O        -1.5931963010       -1.7632036445       -6.4110810000
 C        -1.9080971349       -1.1457590434       -8.7788689733
 C        -3.2025586500       -0.5619906451       -8.2578972664
 C        -4.0763218721       -0.1031833328       -9.4992899136
 O        -3.8726671779       -0.7143163434      -10.5787801392
 C        -4.9513049359        1.2204015663       -9.2960009285
 C        -3.9321987222        2.4051227926       -9.6137010117
 O        -3.4397889984        3.0081218396       -8.6815090703
 C        -3.4600973249        2.7697956604      -10.9965852167
 C        -2.2613782275        3.6654183330      -10.8104418110
 C        -1.7296043351        4.2906280315      -12.1372208178
 O        -2.0271042437        3.7541805056      -13.1759769386
 C        -0.9976786547        5.6798551390      -12.0657632385
 C        -1.9661021673        6.8160010267      -12.5252516096
 O        -2.4613239787        7.5798351338      -11.7357465835
 C        -2.4244643483        6.6721715722      -14.0118460171
 C        -3.9489089569        7.1555773911      -14.0681350879
 C        -4.5675073325        7.0718852984      -15.5318841586
 O        -4.7096198725        5.9308000963      -15.9761595137
 C        -4.7662106789        8.4200828961      -16.3347861769
 C        -3.9564660344        8.0169813032      -17.6874100691
 O        -4.4601489989        7.2099442061      -18.4810085759
 C        -2.5188559474        8.5499704999      -17.9625845510
 C        -1.9183309039        7.9095812266      -19.2410761362
 C        -1.6210535745        6.4195536166      -18.9680200407
 O        -0.9914434088        6.1316665057      -17.9405196305
 C        -2.0553744989        5.2731290755      -19.9534779969
 C        -2.6876916974        4.2070134435      -19.1298144921
 O        -3.9122888581        3.9714092789      -19.1640820884
 C        -1.8315291730        3.2395174921      -18.2865519820
 C        -2.5573232385        2.7614931990      -17.0169227944
 C        -3.4560639068        1.6252083203      -17.4300353916
 O        -3.1993768510        0.9103207773      -18.4223362936
 C        -4.8345037443        1.4266348040      -16.6604450140
 C        -5.9233695246        2.1626140998      -17.5103065293
 O        -6.3924270058        3.1901821192      -17.0344065522
 C        -6.4984465365        1.5969448834      -18.9092397148
 C        -6.8834488827        2.5916052754      -20.0247225186
 C        -7.9257503819        3.6664557792      -19.6728024596
 O        -7.5706087201        4.5948195869      -18.9904283704
 C        -9.3468130204        3.5221417168      -20.3438236579
 C        -9.7035549507        2.1291820861      -19.8997750119
 O        -9.4532460140        1.2038014903      -20.6422373513
 C       -10.2406943733        1.9931153434      -18.4055197075
 C       -10.4719078597        0.5113012333      -17.9729938844
 C       -11.8949927990        0.3112057778      -17.4293884935
 O       -12.5330840604        1.1543170563      -16.8969489981
 C       -12.5302039665       -1.1307370623      -17.6110434105
 C       -12.9689411354       -1.3105036800      -19.1417959757
 O       -12.7735463364       -2.4405181247      -19.6278988224
 C       -13.7947733842       -0.3322701547      -19.9745593783
 C       -11.5723866740       -2.2804215066      -17.3787027259
 C       -13.7316679469       -1.2581932365      -16.6083374492
 C       -10.2883984017        4.6243849596      -19.7730535537
 C        -9.1686993323        3.5930601972      -21.8508405482
 C        -5.2327858758       -0.0930816171      -16.5562695079
 C        -4.9308701401        1.9447518730      -15.1380525654
 C        -2.9699107190        5.6611774951      -21.2271320447
 C        -0.7554926597        4.5948945805      -20.5565716335
 C        -6.2808462420        8.5206358765      -16.8696664529
 C        -4.1748291866        9.6797698080      -15.7342779808
 C        -0.3572503438        5.8876074209      -10.6734423241
 C         0.2226173251        5.6764580654      -13.1567679879
 C        -6.1322167662        1.2512545803      -10.2660825692
 C        -5.3250067070        1.2691043498       -7.8452074098
 C         0.1122716449       -3.9568677254       -7.0864036692
 C        -0.9019625067       -4.0905195490       -9.4070114766
 C        -2.9548199693       -8.6842256610       -4.5923547210
 C        -3.3106888025       -7.4578661978       -2.3856509750
 C         2.7479152790      -12.5702577095       -3.0540684599
 C         0.6801000901      -13.7448721214       -2.2085907172
 C         0.8223721929      -12.5260348082        4.4742696379
 C        -1.6025907797      -11.8048685039        3.8626086961
 C         3.6289600019       -6.9650507572        3.0935800045
 C         1.9076926993       -5.2981158570        2.9692171062
 H         4.4325916291       -6.4263212631        0.0651173672
 H         4.0402203383       -5.1760514875        1.2427459960
 H         3.3416777985       -5.0128749148       -0.3638282416
 H        -0.2539642170       -6.6524908999        3.5597153790
 H         0.5380582589       -7.4530363067        4.8584367001
 H        -1.2786675805       -9.0243924662        3.0201210626
 H        -1.4912753259       -8.5043201440        4.7111545971
 H         2.3750311456      -12.3388153783        2.2544642543
 H         2.4021851447      -10.8926870203        1.3679747376
 H         0.2320215597      -12.6903240121        0.4754699346
 H         1.7833026637      -13.5165216209        0.3940317778
 H         1.7014630156      -10.3463055072       -4.2040514720
 H         1.5307569400       -9.4722217143       -2.6367908322
 H        -0.6799631277       -9.4273983544       -4.6874304354
 H         0.6014274501       -8.1924408612       -4.4470562893
 H        -2.1789061121       -6.8458214598       -6.2162858157
 H        -0.8309347064       -6.0245091490       -5.9654476370
 H        -2.1965710490       -4.0077869656       -5.1941411063
 H        -3.6276919045       -4.8055855219       -5.6743181710
 H        -2.2462547491       -1.7239892728       -9.7267627420
 H        -1.1127613359       -0.3604321574       -8.9697026545
 H        -3.2209524188        0.0476360004       -7.3863940986
 H        -3.7841330082       -1.4200845765       -7.8742607501
 H        -4.2048705109        3.2005771051      -11.5589223892
 H        -3.0991744018        1.9035845691      -11.6004870372
 H        -1.3114698347        3.0829317476      -10.5028192373
 H        -2.4038831641        4.3939773811      -10.0515049684
 H        -2.1936313642        5.8050108712      -14.5702371836
 H        -1.8262495151        7.5034639983      -14.4791619751
 H        -4.1695079412        8.1781032442      -13.6248940519
 H        -4.4874998068        6.5292863242      -13.3793994951
 H        -1.7816317792        8.3835283307      -17.0687616487
 H        -2.5330844197        9.6318545288      -18.1133679255
 H        -0.9210782822        8.4052572213      -19.5272664979
 H        -2.5738088341        7.9586338169      -20.1383893939
 H        -0.8129227721        3.6238984955      -18.0919701913
 H        -1.5707155673        2.3586517781      -18.8558400139
 H        -3.0582206166        3.6319433600      -16.5763903964
 H        -1.7415278278        2.4838808215      -16.4040752791
 H        -7.3617012026        0.9616583782      -18.6603757567
 H        -5.7420005592        0.8269481383      -19.2235406288
 H        -7.3030325617        1.8946737715      -20.7449562115
 H        -5.9470066644        3.0112904511      -20.3455803933
 H       -11.1510909077        2.5542578974      -18.1650271313
 H        -9.4669865130        2.3651419130      -17.7110739201
 H        -9.7476303659        0.1156530458      -17.2054111269
 H       -10.3967661607       -0.1112209103      -18.8457230148
 H       -14.7719698609       -0.6917835334      -19.9642546544
 H       -13.4754926469       -0.3099136565      -21.0661363924
 H       -13.8805420355        0.7450664072      -19.5867933078
 H       -10.7458306431       -2.2351398550      -18.0318364159
 H       -12.1091864822       -3.1498994248      -17.4398985109
 H       -11.1530459451       -2.2413794693      -16.3500811399
 H       -14.6398292347       -1.2411711823      -17.0582037648
 H       -13.6277118820       -0.4697790011      -15.8192780721
 H       -13.6399110534       -2.1933595059      -16.0511238788
 H       -10.4758197386        4.4612511086      -18.6632108457
 H       -11.3291997145        4.4860577756      -20.0983916998
 H        -9.8267885278        5.5620884745      -19.9866471732
 H        -8.1884763558        3.2321827789      -22.1940406475
 H        -9.2929432121        4.5678930510      -22.2681961271
 H        -9.9008932894        3.0299893366      -22.3802352078
 H        -6.2623638363       -0.1531812138      -16.2763913491
 H        -4.7518348349       -0.4289603474      -15.6161548049
 H        -4.9883957629       -0.7610396381      -17.3655169071
 H        -4.0184499743        1.8162156600      -14.6329361664
 H        -5.7196181018        1.3194138896      -14.6837062483
 H        -5.2648110613        2.9910859938      -14.9511872223
 H        -2.6586435859        6.6245338231      -21.7262578310
 H        -4.0530895059        5.7512361864      -20.8480682669
 H        -2.9564169181        4.8883581057      -22.0434028330
 H        -0.3571646515        5.1725134093      -21.3775278243
 H        -1.0434299483        3.6551866639      -20.9592629868
 H         0.0656987570        4.3554083493      -19.8797041334
 H        -7.0017091222        8.7119759498      -16.0923247962
 H        -6.4290671181        7.4802091916      -17.2818122531
 H        -6.4460084976        9.4391331758      -17.4372752659
 H        -3.1422099251        9.6441132333      -15.4134377723
 H        -4.7643643338        9.9385985179      -14.7888651977
 H        -4.2312563569       10.5787766709      -16.3386185713
 H         0.1436089890        4.9000870729      -10.4294594523
 H        -1.0429805827        6.1262382208       -9.8355740736
 H         0.4381767464        6.5785645086      -10.7314522999
 H        -0.0283663113        5.0392267002      -13.9881788465
 H         1.1227537053        5.3002563152      -12.6974680592
 H         0.4783139921        6.6026312579      -13.6886456715
 H        -5.8414883835        1.3075996485      -11.2626142384
 H        -6.7777635682        2.0798786182      -10.1213870901
 H        -6.8018672546        0.3905939593      -10.1352348105
 H        -6.1194069531        2.0815259792       -7.9288845849
 H        -4.5253205363        1.6866155490       -7.2327927656
 H        -5.9236616281        0.3898505151       -7.5097802043
 H         0.5245532515       -4.9141192949       -7.4003927855
 H         0.0623129327       -3.8993491360       -6.0289068449
 H         0.9219044220       -3.3007922576       -7.4639737823
 H        -0.6525251133       -5.1540696870       -9.4137800840
 H        -0.3087603076       -3.2845641042       -9.7408884649
 H        -1.7987225808       -3.8338933760       -9.8348348085
 H        -3.1603698153       -9.6021954542       -4.0568270993
 H        -2.3783245090       -8.8171434394       -5.5209085066
 H        -3.8966912093       -8.2861459245       -4.8810418434
 H        -4.2091932264       -6.9548298629       -2.7882198804
 H        -2.7409542559       -6.8801520347       -1.6149434527
 H        -3.6969043065       -8.3623359363       -1.8982948881
 H         3.3280660552      -11.6501035140       -3.2917848522
 H         2.5966590524      -13.0163093365       -4.0711656623
 H         3.3784828480      -13.1587726510       -2.4903172436
 H         0.4193185220      -14.0937280545       -3.1947674598
 H        -0.1965135324      -13.7755992471       -1.5486115515
 H         1.3349758734      -14.5698650360       -1.7800316159
 H         0.7909233822      -13.5370088932        3.9611439550
 H         0.5466714970      -12.7458771817        5.4864105211
 H         1.8836177434      -12.1986021184        4.5518533609
 H        -1.8446008479      -12.8300824745        3.5314624467
 H        -2.0159955372      -10.9835236732        3.2733534328
 H        -1.9166778505      -11.5992804406        4.8891814311
 H         4.3550039410       -6.1365613309        2.8959566426
 H         4.0093997538       -7.9538272587        2.8034950492
 H         3.5112409995       -7.0073835368        4.2014893641
 H         1.9190853358       -5.5046582629        4.0548193671
 H         1.0546242327       -4.7244960129        2.7046330136
 H         2.8211016570       -4.7596388533        2.6847521439
 Na        0.3395373976       -9.1003840753        0.1243431508
 Na       -5.6883445317        5.2587369453      -18.1871450551
