232

 C         3.7652227525       -5.7628196766        0.3073719051
 C         2.7843692184       -6.7583983480        0.7333086391
 O         2.2882091307       -7.4441687714       -0.1170922710
 C         2.2700514448       -6.6202426278        2.2607846826
 C         1.2147264296       -7.7033008430        2.5797527766
 O         1.4178536961       -8.8436082160        2.2133717046
 C        -0.1050667607       -7.2901679039        3.3880643992
 C        -0.8652060402       -8.5973994788        3.8583735660
 C         0.2436807992       -9.7189728188        4.2725775116
 O         1.2040811891       -9.3766732182        4.9113576856
 C         0.0202300298      -11.3014869069        3.9846131153
 C         0.2709702154      -11.3499171571        2.3801868078
 O        -0.4566040013      -10.6749160506        1.6166938488
 C         1.4774323308      -12.1940109878        1.8346994629
 C         1.1960862995      -12.8461626962        0.5028012958
 C         1.6832080160      -11.9531619949       -0.7397041486
 O         2.2026214741      -10.9067762167       -0.5680633837
 C         1.4300409141      -12.4906191248       -2.2149584989
 C         0.4104087166      -11.4307646205       -3.0039741967
 O        -0.7864863129      -11.6165353551       -2.9278542243
 C         1.0197066076      -10.2815643551       -3.8897417443
 C        -0.0216108033       -9.2241960248       -4.4069108156
 C        -0.8893854925       -8.7209265853       -3.1993081419
 O        -0.4011356780       -8.6589789778       -2.1057059248
 C        -2.3240744329       -8.0330240401       -3.5113927099
 C        -1.8450548232       -6.6338951724       -4.1273015019
 O        -1.1698573920       -5.8804758819       -3.5119426340
 C        -2.3122890280       -6.1838433615       -5.6366639398
 C        -1.9901100390       -4.7171566412       -5.7348057837
 C        -2.0965657001       -4.4077401232       -7.2497297209
 O        -3.0501901385       -4.7271259919       -7.8964641097
 C        -0.8407115888       -3.7022618641       -7.8865044215
 C        -1.5064274694       -2.0671285284       -7.6985103676
 O        -1.4224516665       -1.5084416197       -6.6394885844
 C        -2.6203294104       -1.6258732978       -8.6755481701
 C        -3.4146284841       -0.4189826521       -8.0811646021
 C        -4.1849686560        0.3401028901       -9.2377706024
 O        -4.1569687570       -0.1359335580      -10.3497892516
 C        -4.8521181121        1.6899083984       -9.0742066976
 C        -3.6734818907        2.7487931573       -9.2469180833
 O        -3.0375911271        3.0293731737       -8.2925631983
 C        -3.0807264660        2.9302955062      -10.6623347671
 C        -2.1992935625        4.0902090570      -10.7496889051
 C        -1.5888030756        4.4383609366      -12.1521235292
 O        -1.7142660558        3.7624614799      -13.1373073953
 C        -0.8977690294        5.8868874132      -12.3623328712
 C        -2.2475228354        6.6557087720      -12.6696366640
 O        -2.8947773793        6.9672972772      -11.6700277339
 C        -2.7639681554        6.8645357493      -14.0334404579
 C        -4.2818996706        7.3164878632      -14.0268632355
 C        -4.7131473648        7.1014142968      -15.4651244209
 O        -5.1769312801        6.0473587261      -15.8824593181
 C        -4.6018644253        8.3865288394      -16.4031432265
 C        -4.0462322546        8.0306634621      -17.8391174037
 O        -4.7446442677        7.2798279586      -18.5340916632
 C        -2.7836730392        8.8022554587      -18.3876492757
 C        -2.0782062758        7.9644235054      -19.4490413665
 C        -1.5361227158        6.6446818024      -18.8861287042
 O        -0.9175236989        6.6434678810      -17.8320673908
 C        -1.7802723593        5.2387034967      -19.7014355635
 C        -2.4510849287        4.1753750406      -18.7434440229
 O        -3.6347643783        3.8055994290      -18.7442080534
 C        -1.4688598242        3.3503159329      -17.7535356237
 C        -2.2603202009        2.4672279595      -16.7792525194
 C        -3.3800291549        1.4083723273      -17.3325998932
 O        -3.2469023325        0.6714956662      -18.2563466701
 C        -4.8140865126        1.2852502927      -16.5896758936
 C        -5.7893267603        2.2435382617      -17.4582698008
 O        -6.2529611167        3.2754920912      -17.0529172937
 C        -6.3619715564        1.6580696173      -18.8679490857
 C        -6.6108265123        2.6645036667      -20.0524906013
 C        -7.7794791222        3.7121630435      -19.7774052662
 O        -7.5779175438        4.7478541968      -19.1333703114
 C        -9.2187972597        3.3863628828      -20.2685422477
 C        -9.9115816743        2.0195767394      -19.8178309916
 O       -10.0501465186        1.0860827217      -20.6461249587
 C       -10.7368181139        1.8880483966      -18.4708759972
 C       -10.9687223438        0.4145634142      -18.0153989650
 C       -12.3444395972       -0.0616780075      -17.4269133550
 O       -13.0591748279        0.7536368675      -16.8916937466
 C       -12.9403765148       -1.4810358879      -17.7481525823
 C       -13.4051685955       -1.2318334747      -19.2567493343
 O       -13.3213922729       -2.1727264490      -20.0272672145
 C       -14.1658864808        0.0667681560      -19.7101070856
 C       -11.8650519861       -2.6310208393      -17.5747213155
 C       -14.2690104935       -1.8148687285      -16.9727730842
 C       -10.1297232727        4.4707161299      -19.6146188162
 C        -9.0167066965        3.3679097551      -21.8254610000
 C        -5.1054151573       -0.2205650619      -16.6213530430
 C        -5.0170914096        1.7513505620      -15.1294965322
 C        -2.7807061227        5.2820278673      -20.8778926065
 C        -0.4489101889        4.7338290942      -20.2337106869
 C        -6.1514338921        8.8446085077      -16.6303381263
 C        -3.8596478854        9.5782330088      -15.8182969971
 C        -0.1971340774        6.3688884119      -11.0742757261
 C         0.1000467674        5.7098360317      -13.5189071949
 C        -5.8838018964        2.0855130939      -10.1613347383
 C        -5.5397414687        1.8567704968       -7.6817502247
 C         0.4567788735       -4.0362246653       -7.2042842380
 C        -0.7410527635       -3.9571760597       -9.5066951238
 C        -3.1332971298       -8.8420304184       -4.4657366053
 C        -3.0517550687       -7.9070220969       -2.1749944407
 C         2.8303671498      -12.5446959385       -2.8666215875
 C         0.7479857307      -13.8822857876       -2.2741334046
 C         1.1817150820      -12.0560604201        4.7055801638
 C        -1.3767384769      -11.6678637543        4.5425093810
 C         3.4940927226       -6.9702664359        3.2760447051
 C         1.9437539461       -5.0826311112        2.4882844627
 H         4.1712336355       -5.2820646830        1.2511248025
 H         3.3272588231       -5.0334647822       -0.3457592621
 H         4.6724658933       -6.1871675648       -0.2471407707
 H        -0.8796818885       -6.6682820413        2.8741119700
 H         0.2387609554       -6.7935711093        4.3100118368
 H        -1.4086345145       -8.8853719106        2.9552673158
 H        -1.5387660760       -8.6295140501        4.6276827138
 H         1.8191618704      -12.9363051396        2.5246284142
 H         2.3902572923      -11.5245738256        1.6246751947
 H         0.0931148519      -13.0548473402        0.3999977503
 H         1.6806339682      -13.7874120565        0.4768643276
 H         1.4352154393      -10.7009317905       -4.8321510578
 H         1.8127662150       -9.8824239475       -3.2347965550
 H        -0.5703345882       -9.7678826580       -5.1939461994
 H         0.5468125201       -8.3419025494       -4.7047736988
 H        -3.3284532943       -6.4409606405       -5.8778241170
 H        -1.7621153810       -6.9170901820       -6.2753645200
 H        -0.9749576199       -4.5307755297       -5.3313995433
 H        -2.7421294776       -4.1389934163       -5.2302872446
 H        -3.2961892481       -2.4443028116       -8.9349602116
 H        -2.1404281746       -1.2927647056       -9.6285656478
 H        -2.7822205625        0.2496659159       -7.5043071079
 H        -4.1800005362       -0.7025613544       -7.3656114368
 H        -3.9444208829        3.1782894064      -11.2484804705
 H        -2.7011938421        1.9154103225      -11.0764678304
 H        -1.3067075201        4.0044603575      -10.0327947312
 H        -2.7485977528        4.9397415984      -10.4412612296
 H        -2.5205497096        6.0638489038      -14.7194187959
 H        -2.2451707988        7.7554840560      -14.5547007388
 H        -4.3421390994        8.3381048423      -13.5173625702
 H        -4.8897157514        6.5962181464      -13.4155901152
 H        -2.0928947268        9.0252830960      -17.5327043698
 H        -2.9827319756        9.7864352029      -18.7697005749
 H        -1.0861569736        8.3779970957      -19.8229386669
 H        -2.6236345467        7.8776328900      -20.3925287710
 H        -0.7962850217        4.0431116240      -17.2782232989
 H        -0.8050392296        2.7534222419      -18.2982459059
 H        -2.5849662181        3.2157939301      -16.0553059489
 H        -1.6332513015        1.8704621683      -16.1940922842
 H        -7.3647730415        1.1830874765      -18.6336124541
 H        -5.6501544560        0.8539525976      -19.3603559660
 H        -6.7684474567        1.9334732656      -20.8574414688
 H        -5.6582796871        3.2042044595      -20.1035955232
 H       -11.6799094073        2.3888718263      -18.6692892848
 H       -10.3136870118        2.5177947243      -17.6720375949
 H       -10.1916464444        0.0337382829      -17.2556923272
 H       -10.7661173810       -0.1450477004      -18.9088496463
 H       -14.2094568332        0.7394417108      -18.8353878793
 H       -15.2012357160       -0.0404932255      -20.0553263052
 H       -13.7468034469        0.5920185857      -20.6023914596
 H       -11.1139257426       -2.5605518150      -18.3537239185
 H       -12.2866249189       -3.5836095098      -17.7340499301
 H       -11.3129661077       -2.4510199373      -16.6366346791
 H       -14.6276367448       -0.9122757682      -16.5783262865
 H       -14.0942072911       -2.5643659888      -16.2249868846
 H       -15.0312069781       -2.1648023315      -17.6229246078
 H       -10.1091245835        4.2758627404      -18.5280438760
 H       -11.1363238812        4.5516464685      -19.8730814575
 H        -9.6049727159        5.3040420622      -19.8693687629
 H        -8.6593172968        2.4635888180      -22.2757805017
 H        -8.3601707921        4.1525984903      -22.1643872403
 H        -9.9209482693        3.6523503647      -22.3594753697
 H        -6.0369893284       -0.4103197977      -16.1763891638
 H        -4.2754419504       -0.7319846382      -16.1276653845
 H        -5.1654873468       -0.5962804699      -17.6149079310
 H        -4.1259555899        1.6690673790      -14.5106049787
 H        -5.8269111909        1.2753020888      -14.5571036678
 H        -5.4622670130        2.7712701312      -15.2017679097
 H        -2.3877792853        5.8532940173      -21.7997003800
 H        -3.6822452678        5.8526799837      -20.6026880981
 H        -2.9747622649        4.1289859141      -21.1655716182
 H        -0.1374302646        5.3406661844      -20.9932662537
 H        -0.5484851228        3.7938367179      -20.6720212935
 H         0.3500486191        4.7292989400      -19.4938859391
 H        -6.6391753012        9.1395296766      -15.6866922786
 H        -6.5787642810        7.9565135352      -17.1519395930
 H        -6.1837042949        9.6454494967      -17.4076019280
 H        -2.7800036914        9.3946372689      -15.6463996993
 H        -4.4770321857       10.1542540448      -15.1081542751
 H        -3.7563912227       10.4015602786      -16.5370591194
 H         0.7872673940        5.8641349899      -10.9023543663
 H        -0.7884579141        6.4001407863      -10.1417875904
 H        -0.1431117591        7.4228258518      -11.1944682832
 H        -0.4044149775        5.7410592085      -14.5045838144
 H         0.6570574961        4.7618908020      -13.5100400492
 H         0.8451065712        6.5236408867      -13.5589276838
 H        -5.5280336463        1.6164828482      -11.0762374240
 H        -6.0607845699        3.1938035408      -10.3715517394
 H        -6.8787390899        1.5694953706      -10.0335287544
 H        -6.1712371423        2.8141445841       -7.6998812904
 H        -4.9069414302        1.8620209127       -6.8103236884
 H        -6.2452185058        0.9951543656       -7.5781211556
 H         0.4880500551       -5.1543436607       -7.0796476581
 H         0.6089624522       -3.4791137700       -6.2503943465
 H         1.3751796221       -3.8396385393       -7.9127802093
 H         0.0433536515       -4.7137449547       -9.5402174151
 H        -0.4999407453       -3.0143622882       -9.9546652915
 H        -1.6890698116       -4.2491063705       -9.7798794447
 H        -3.2153552884       -9.8426710552       -4.0782805296
 H        -2.4274681355       -8.8979408151       -5.3293965960
 H        -4.0833511080       -8.3154829750       -4.7744898418
 H        -3.9930338398       -7.2695118687       -2.3059832456
 H        -2.4853955506       -7.3110001633       -1.4227874387
 H        -3.3024184829       -8.9306339305       -1.9421651607
 H         3.2557619714      -11.5777906629       -3.0172565137
 H         2.8802682728      -12.8800552462       -3.8828128233
 H         3.4466345353      -13.1657007739       -2.2564744396
 H         0.6331945617      -14.2565319185       -3.2602492650
 H        -0.2294403722      -13.8098983487       -1.9123215470
 H         1.2870894971      -14.5828959980       -1.5888458637
 H         1.3526686919      -13.0866307454        4.2187150481
 H         0.9493315323      -12.3191438981        5.7366883824
 H         2.1668749940      -11.5476054687        4.6698422514
 H        -1.4185699299      -12.7863397157        4.4104833972
 H        -2.1467708345      -11.0850743804        3.9970198357
 H        -1.5235511607      -11.4321077432        5.6219347190
 H         4.3052162458       -6.2354658429        3.1217815882
 H         3.9801282684       -7.9163100783        3.0769088749
 H         3.1203215129       -6.9713226487        4.3179123950
 H         2.1625828946       -4.7695266823        3.5694886786
 H         0.9040271034       -4.8976726001        2.2299730496
 H         2.5284404338       -4.3895981529        1.8321261740
 Na        0.7329794066       -9.1941158386       -0.0039307197
 Na       -5.5069995775        5.1794331634      -18.0068958171
