232

 C         3.9530643891       -5.7202865381        0.1869766412
 C         2.8506427948       -6.6827844285        0.7091988722
 O         2.4076974869       -7.5175939702       -0.0632358300
 C         2.3158785619       -6.5939555411        2.2096467949
 C         1.1925375470       -7.5598931656        2.5845340100
 O         1.3637606124       -8.6628428541        2.1247536041
 C        -0.0477698054       -7.3725522693        3.3727090829
 C        -0.7772640943       -8.7279785220        3.6946945522
 C         0.2688107557       -9.6971018718        4.3012688101
 O         1.2658835958       -9.2229825005        4.8153180887
 C         0.0357211969      -11.2053040835        3.9860471273
 C         0.1935095846      -11.4172876250        2.4212513283
 O        -0.3544272089      -10.7826808095        1.5210689531
 C         1.3421249234      -12.3232717656        1.8606556484
 C         1.1104098591      -12.8513012542        0.4020949812
 C         1.5994107397      -11.9678684147       -0.7165803874
 O         2.3196250469      -10.9861143556       -0.5313951502
 C         1.3924413867      -12.4911322913       -2.1898993938
 C         0.3888406008      -11.4692400183       -3.0538489647
 O        -0.7668202685      -11.7699668893       -3.0800757031
 C         0.9984841727      -10.4143303905       -3.9460302178
 C         0.0210363008       -9.3159260600       -4.4235627009
 C        -0.8505821962       -8.7194831524       -3.2764352078
 O        -0.4009046382       -8.8061030554       -2.1168674794
 C        -2.2517854960       -8.1516461081       -3.5532182340
 C        -1.9659700251       -6.6707885121       -4.0863281711
 O        -1.1812737967       -5.9190263141       -3.4891654984
 C        -2.4012816464       -6.2710953784       -5.4787222482
 C        -1.9061465363       -4.8441214677       -5.8053136964
 C        -1.9994503752       -4.4589992361       -7.3013011744
 O        -3.0200750084       -4.7975901106       -7.9153945029
 C        -0.9280205590       -3.5428031189       -7.8844135311
 C        -1.5719313296       -2.0487222012       -7.6572895338
 O        -1.2070868672       -1.3651658748       -6.7743020556
 C        -2.7817292405       -1.5984225991       -8.5559396048
 C        -3.4709245784       -0.3027240355       -8.1146459868
 C        -4.2525091738        0.2925390800       -9.2516230651
 O        -4.1653040192       -0.1219639349      -10.3586754103
 C        -4.8212255220        1.8213028704       -9.0531545006
 C        -3.5311231285        2.6927683051       -9.1529965919
 O        -2.9097197365        3.1375996427       -8.2143564015
 C        -2.9949647361        3.0826159925      -10.6232546598
 C        -2.1040849074        4.2822048071      -10.6345270367
 C        -1.5008962254        4.4532093502      -12.0259526824
 O        -1.7412645551        3.6676004001      -12.9341936252
 C        -0.8664964305        5.8711615395      -12.4177127508
 C        -2.2955865600        6.6169824089      -12.6427530923
 O        -3.0165971836        6.8873414799      -11.7021849629
 C        -2.7141169916        6.8524262109      -14.0840595522
 C        -4.2774131736        7.3169565720      -14.0584974308
 C        -4.7835074245        7.1337765794      -15.4475711449
 O        -5.1784398914        6.0321428581      -15.8145578597
 C        -4.6713909780        8.4122788767      -16.4770678308
 C        -4.1503833700        7.9972865777      -17.8537059183
 O        -4.6896879431        7.2924819214      -18.6670017813
 C        -2.9798645647        8.7543503040      -18.3925662109
 C        -2.1648055773        7.9472481590      -19.4112337690
 C        -1.6183916565        6.6229427370      -18.7838916409
 O        -1.0158051891        6.6985653448      -17.7667326905
 C        -1.7698444651        5.1193830762      -19.5577910221
 C        -2.3809357976        4.0829555229      -18.5837518907
 O        -3.5630868118        3.9688211317      -18.5396427493
 C        -1.5170463429        3.0945931410      -17.7686352101
 C        -2.3115575463        2.4471036803      -16.6293662078
 C        -3.3619788874        1.5647675621      -17.2693442676
 O        -2.9964100264        0.9686143961      -18.2442312657
 C        -4.8794478916        1.2896057242      -16.6512456757
 C        -5.8999647396        2.1306745243      -17.5265615517
 O        -6.1118507510        3.1857873249      -16.9997348099
 C        -6.4591502316        1.6500358188      -18.8667502608
 C        -6.6617473203        2.6686457040      -20.0358014409
 C        -7.7744301373        3.6147793673      -19.6465340747
 O        -7.4854677098        4.7312521807      -19.1962268764
 C        -9.1668873263        3.3863676393      -20.1789893566
 C        -9.9991255213        1.9589947059      -19.7797336608
 O       -10.0131121073        1.0443254418      -20.5692368501
 C       -10.8167161641        1.8045730684      -18.4584659837
 C       -10.8963104910        0.3242269818      -17.9663723042
 C       -12.3656595103       -0.0866656223      -17.4306879793
 O       -13.0676627362        0.7317091643      -16.8113129725
 C       -13.0724988019       -1.4422830615      -17.8364691363
 C       -13.5869444673       -1.2974471243      -19.3473126688
 O       -13.4063389571       -2.1208290811      -20.1650014462
 C       -14.3504660060       -0.0797606262      -19.6813218638
 C       -12.1505534332       -2.6737805759      -17.7642270411
 C       -14.3605522524       -1.8482041063      -16.9838694240
 C       -10.0808253751        4.5018310611      -19.7003595088
 C        -8.9792820407        3.4585909746      -21.7767977523
 C        -5.1567161224       -0.2187374016      -16.6794662807
 C        -4.8829052146        1.7288882810      -15.1512826375
 C        -2.7008897291        5.2033513725      -20.7719217008
 C        -0.4041164883        4.6888101666      -20.1893737315
 C        -6.0091963272        8.9970000927      -16.7340986105
 C        -3.8232027985        9.6216963813      -15.8779836317
 C        -0.1670916078        6.4348210933      -11.1943631912
 C        -0.0621302162        5.8455309096      -13.6597636526
 C        -5.8604414087        2.1910165052      -10.1715081807
 C        -5.4413545252        1.9993155006       -7.6008888762
 C         0.5348617043       -3.7361267297       -7.3315775788
 C        -0.8443944056       -4.0115366571       -9.4347544707
 C        -3.2258299076       -9.0484344696       -4.4769799277
 C        -3.0025041828       -7.9305241109       -2.1158694879
 C         2.8104029244      -12.5879924655       -2.8451231168
 C         0.8130744241      -13.8795263691       -2.2970414275
 C         1.1532192347      -11.8658879504        4.8197481155
 C        -1.2993447094      -11.5585356884        4.6817363119
 C         3.4366921692       -6.9257994811        3.1878389889
 C         1.8128059913       -5.1148668937        2.3611779398
 H         4.2570982539       -4.9976392668        1.0005262121
 H         3.6374812903       -5.1747385655       -0.7011393228
 H         4.8928859577       -6.2375324813       -0.0933290000
 H        -0.7462014591       -6.7985983369        2.8302642443
 H         0.0800014838       -6.9266323792        4.3250866862
 H        -1.3074031969       -9.1352690454        2.8158691003
 H        -1.5625920306       -8.6714089427        4.4790333868
 H         1.5147575835      -13.1981043456        2.5061305512
 H         2.1742218968      -11.7764293537        1.9261500699
 H         0.0619484400      -12.9647709830        0.2960047136
 H         1.5271605904      -13.8517773502        0.2229511742
 H         1.3485137379      -10.8762152133       -4.8901675394
 H         1.8314453568      -10.0447641058       -3.3870074114
 H        -0.5456739990       -9.7259870868       -5.2576959498
 H         0.6768507910       -8.5222512574       -4.6667393057
 H        -3.4840511267       -6.4102307377       -5.4466687023
 H        -2.0668759313       -7.0798386495       -6.0573303112
 H        -0.8897865622       -4.7684568670       -5.4429467523
 H        -2.5177417731       -4.1281742110       -5.3540475718
 H        -3.6286716972       -2.3636464140       -8.4963934778
 H        -2.4350640045       -1.6135279120       -9.6962736179
 H        -2.8066346830        0.5158718485       -7.7529050468
 H        -4.0829491162       -0.5190408753       -7.2633973172
 H        -3.8317796574        3.2084967120      -11.2861573760
 H        -2.4563440519        2.2875220986      -10.9736224082
 H        -1.2690374369        4.0187557517       -9.9430928505
 H        -2.5455477919        5.2513604267      -10.2847978094
 H        -2.5273127511        5.9401236165      -14.6718415038
 H        -2.1040891547        7.5821056684      -14.6080478394
 H        -4.3146757602        8.2616961920      -13.6042236423
 H        -4.8068629172        6.5439163973      -13.4051008643
 H        -2.3766305151        9.2226960306      -17.6253318174
 H        -3.3008861809        9.6776552690      -19.0090856483
 H        -1.2611500115        8.4918945169      -19.8233905350
 H        -2.7857452246        7.7988872593      -20.3361013526
 H        -0.6317728824        3.6679746359      -17.4759438974
 H        -1.0988284696        2.2939164311      -18.4017497305
 H        -2.5397906850        3.2373721592      -15.9459225202
 H        -1.7018700455        1.7945022807      -16.0156911476
 H        -7.4374860811        1.2210442910      -18.6814590955
 H        -5.7728317625        0.8607778320      -19.2685989101
 H        -6.8953906515        1.9850857166      -20.8363181053
 H        -5.7640570035        3.2462496364      -20.1684987058
 H       -11.8187890889        2.2373848915      -18.6755576399
 H       -10.4931073357        2.4450746126      -17.6589558569
 H       -10.1614641422        0.1936543536      -17.0759369929
 H       -10.5435596961       -0.3096538988      -18.7254831798
 H       -14.1620156346        0.7483801465      -18.8727090677
 H       -15.4149809125       -0.0992499258      -19.8687027007
 H       -14.0305287621        0.2403100383      -20.6473875197
 H       -11.3229667943       -2.5451424769      -18.4055034275
 H       -12.6311507628       -3.5522401191      -18.2111223405
 H       -11.8158826570       -2.7338573808      -16.8121225489
 H       -14.6926748638       -0.9387911712      -16.3982373962
 H       -14.1265004464       -2.6222233383      -16.3577328833
 H       -15.1632230930       -2.1169346287      -17.6160704197
 H       -10.2763093072        4.3144684714      -18.6507207739
 H       -11.0411953628        4.3904442083      -20.2294780301
 H        -9.6630321996        5.5213879963      -19.9132611693
 H        -8.3662428523        2.7690860844      -22.2567340122
 H        -8.4581085414        4.4022169632      -21.9026953371
 H        -9.8376202560        3.6074545291      -22.4467359093
 H        -6.2081145896       -0.4254711387      -16.6423264564
 H        -4.5481679272       -0.7006052719      -15.9673413997
 H        -4.8398566932       -0.6110593248      -17.6362470932
 H        -3.8444531220        1.6951115272      -14.7140435247
 H        -5.4098561811        1.0661152790      -14.5171131401
 H        -5.4014450255        2.6607978996      -15.0092060284
 H        -2.2503476682        6.0300791209      -21.4114403814
 H        -3.7500513342        5.5680695986      -20.6107803061
 H        -2.6163531046        4.2434959879      -21.3127732653
 H        -0.2027240080        5.1660278667      -21.1055773193
 H        -0.4772295130        3.6442086665      -20.4485207196
 H         0.4351513897        4.8226905453      -19.5548640057
 H        -6.2257269558        9.6687703759      -15.8121176527
 H        -6.7298163213        8.1908832250      -16.8639193457
 H        -6.0218463052        9.4775540262      -17.7399290897
 H        -2.8006370717        9.1672751047      -15.8294949279
 H        -4.2350449565       10.0304758115      -15.0115819718
 H        -3.6705297642       10.5015915321      -16.4746157284
 H         0.8209314527        6.0510632173      -11.1210753985
 H        -0.6599538910        6.2449563867      -10.2485237219
 H        -0.2319996247        7.5539543560      -11.1659140987
 H        -0.6330108951        6.0975264814      -14.5825484322
 H         0.4237089342        4.8844278050      -13.9235723378
 H         0.7201894862        6.5724072901      -13.5964539566
 H        -5.4662753948        1.8612294797      -11.1395343026
 H        -6.0611596893        3.2743765822      -10.2483046397
 H        -6.7662156304        1.6838286006      -10.0830720842
 H        -6.0482913439        2.9253299532       -7.4292744412
 H        -4.5336296387        2.0682755032       -6.9191329316
 H        -5.9625004227        1.0649233780       -7.2375221788
 H         0.5825815465       -4.8432861988       -7.2830948963
 H         0.6452147934       -3.2960139505       -6.2917065766
 H         1.3723319277       -3.4110538425       -7.9620835310
 H        -0.0389638516       -4.6836154554       -9.3120317700
 H        -0.4804860670       -3.1664395086       -9.9800326474
 H        -1.8052524198       -4.4590466956       -9.7346600341
 H        -3.2934905099       -9.9906517659       -3.9758985219
 H        -2.7343105087       -9.2604137625       -5.4077433256
 H        -4.2052409921       -8.4863887253       -4.6082624887
 H        -3.7752150087       -7.1407761849       -2.3000579458
 H        -2.4368229447       -7.5096402058       -1.2930042629
 H        -3.4838526286       -8.8923243795       -1.9646698297
 H         3.0912796076      -11.6930247213       -3.3079083109
 H         2.8892095438      -13.2421506154       -3.6564756207
 H         3.5969487467      -12.9659021878       -2.1057504123
 H         0.5006095110      -14.1693040671       -3.3273958549
 H        -0.0947540890      -13.9639390144       -1.7235709787
 H         1.5695337469      -14.5242855935       -1.8466710186
 H         1.3399502786      -12.9263659802        4.5719264894
 H         0.8091774438      -11.8615257024        5.9140993657
 H         2.1467533040      -11.3688446909        4.7582186323
 H        -1.2437990851      -12.6152846908        5.0379690004
 H        -2.2451000179      -11.2453954862        4.1679271242
 H        -1.2540101415      -10.9235269697        5.6112120735
 H         4.3424476285       -6.3205272360        2.9983477167
 H         3.8068929814       -7.9699763445        3.1445035161
 H         2.9954592351       -6.7437965401        4.2067946758
 H         1.9886846195       -4.7495042103        3.3790741770
 H         0.7267969552       -5.1302632814        2.1502834050
 H         2.2458942931       -4.3486916814        1.7246032378
 Na        0.8563082175       -9.2283754827        0.0416343662
 Na       -5.5432780428        5.2495340806      -18.0403293568
