232

 C         4.3261492251       -5.7881501203        0.0466560830
 C         3.0490537509       -6.4872094369        0.3519656612
 O         2.6604642466       -7.1907054973       -0.5651790574
 C         2.3117903206       -6.1909228641        1.6584439941
 C         1.4055164482       -7.3199467370        2.0776496531
 O         1.7300117972       -8.4696428034        1.8189623838
 C         0.2024209878       -7.0192165587        3.0654844553
 C        -0.5611099164       -8.3529516143        3.4306139014
 C         0.4487207441       -9.3560603843        3.9338039413
 O         1.3716047371       -9.0282226448        4.6537245839
 C         0.1857388875      -10.9444788986        3.6805175081
 C         0.1663188490      -11.2402230960        2.0917820075
 O        -0.1988470452      -10.2831717757        1.3998299623
 C         0.6520113335      -12.6702069751        1.6742824425
 C         0.4581520330      -13.1540551186        0.1961935171
 C         1.4941113884      -12.5442089600       -0.8115996915
 O         2.0708703980      -11.4751477597       -0.6382096527
 C         1.5818082052      -13.1710525756       -2.1495755815
 C         0.6254802766      -12.2191357725       -2.9521935519
 O        -0.5568973044      -12.4442381203       -3.0029124673
 C         1.1404756578      -10.8143375488       -3.3654100147
 C         0.0987606786       -9.8099965155       -3.8055276941
 C        -0.9001685655       -9.1693786512       -2.8844242746
 O        -0.7073192495       -9.1105129247       -1.6760845358
 C        -2.1524310722       -8.4040141219       -3.4253192617
 C        -1.6268975828       -6.9938564155       -3.8993831881
 O        -1.0267540439       -6.3029419756       -3.0972277576
 C        -2.0744820290       -6.4046104987       -5.2554019053
 C        -1.1077420934       -5.4079825256       -5.8463843135
 C        -1.8525273300       -4.6027865422       -7.1266305305
 O        -2.8850266309       -5.0187180338       -7.5033998404
 C        -1.0778818394       -3.4973930036       -7.9230554160
 C        -1.6723326034       -1.9415526137       -7.7616170206
 O        -0.8863076479       -1.1049010285       -7.4638907100
 C        -3.2003087722       -1.6756355079       -7.9095562238
 C        -3.7763654232       -0.2303525969       -7.6114798610
 C        -4.2954569375        0.6860830818       -8.8490570399
 O        -4.2752179725        0.2598118657       -9.9826307251
 C        -4.6089763301        2.2373283858       -8.6019313330
 C        -3.1940569966        3.1094485220       -8.9123822165
 O        -2.4856698704        3.2531306107       -8.0008546143
 C        -2.8915943607        3.5344245321      -10.3962940241
 C        -1.5728626045        4.3781721880      -10.4763075372
 C        -1.1667446076        4.5534352401      -12.0207028127
 O        -0.8250426015        3.5708002661      -12.6483702368
 C        -0.9858270778        6.0237371873      -12.5527449860
 C        -2.3697104941        6.6358418016      -12.8879197803
 O        -3.0556051795        7.1680967448      -12.0170076872
 C        -3.0656886250        6.6299038488      -14.3887173976
 C        -4.1785131528        7.6124290883      -14.4250381104
 C        -4.9898121506        7.5419172269      -15.7884208661
 O        -5.6239860631        6.5612468417      -16.0734047936
 C        -4.8322733394        8.8344462982      -16.7341416083
 C        -4.2321536458        8.2720425216      -18.0985147951
 O        -4.8106200420        7.3557564460      -18.7117580658
 C        -2.8640839677        8.7946513961      -18.7473121987
 C        -2.2020330172        7.6373416528      -19.5303194490
 C        -1.7965464072        6.5062740853      -18.5701888859
 O        -1.6045303655        6.7244253481      -17.3979905994
 C        -1.6224518498        5.0145637575      -19.0556108067
 C        -2.2708077403        4.1479687008      -17.9782426978
 O        -3.4544313505        4.1427109376      -17.7770160998
 C        -1.3991810139        3.1737744159      -17.1757658114
 C        -2.2800271364        2.1105971388      -16.4164317883
 C        -3.4118182575        1.5963044508      -17.3085761573
 O        -3.3689337636        1.5902520811      -18.4754743866
 C        -4.7778730499        0.9781284369      -16.6204231639
 C        -5.8221887212        1.9721008200      -17.3652637540
 O        -5.8722876864        3.0973179978      -16.9792277488
 C        -6.5617258339        1.3855405977      -18.5182397907
 C        -6.6800276400        2.5743061115      -19.5283982406
 C        -7.9809965366        3.5291883917      -19.3608945728
 O        -7.9317478073        4.5426965245      -18.6844870634
 C        -9.3833723457        3.0971428471      -20.0131980909
 C        -9.5898014226        1.5961994510      -19.6301368703
 O        -8.6991254944        0.7642424008      -19.9961453170
 C       -10.6884547800        1.1499080144      -18.6841117152
 C       -11.6575617572        0.0488350991      -19.1586986046
 C       -12.7611785187       -0.1746673461      -18.0301167658
 O       -12.9206358253        0.5011007284      -17.0222111039
 C       -13.7148181892       -1.4840037981      -18.1689092352
 C       -14.3507162536       -1.1088199729      -19.5427002674
 O       -13.5850588040       -1.2826508588      -20.4831486705
 C       -15.6036561368       -0.2768087213      -19.7797271035
 C       -12.7737170089       -2.7856745020      -18.3007290672
 C       -14.6820742117       -1.4660682775      -16.9691786721
 C       -10.4193043931        3.9917622407      -19.2713133736
 C        -9.4808542623        3.2760537519      -21.5417450240
 C        -4.9305543883       -0.5304776489      -16.9555495205
 C        -4.7384844204        1.2217971771      -15.0051861029
 C        -2.4026788696        4.7210804428      -20.4700549970
 C        -0.1078299144        4.7095997043      -19.1009080396
 C        -6.2239839442        9.3115429751      -17.1077342840
 C        -4.1305482048        9.9615322855      -16.0922552419
 C        -0.2891394275        6.9031606765      -11.4137285493
 C        -0.0630287375        5.9475183609      -13.8005655334
 C        -5.6432945625        2.6698905828       -9.6827743981
 C        -5.0137568754        2.6794773820       -7.1744091548
 C         0.3798623906       -3.4313825106       -7.5718546952
 C        -1.2906864910       -3.9130743426       -9.4693555345
 C        -2.9500427103       -9.0524092278       -4.6054448811
 C        -3.1705257776       -8.0342458423       -2.2274381382
 C         2.9990753574      -13.1110130773       -2.7011791581
 C         1.0486460992      -14.6767274145       -2.3809957963
 C         1.4133521677      -11.7439560581        4.2419120297
 C        -1.1080345599      -11.3742196406        4.4052339480
 C         3.2478554003       -6.0083637424        2.9006424713
 C         1.5363657050       -4.8608966247        1.3984264505
 H         4.1867429636       -4.9551938835       -0.6558287542
 H         4.9985958192       -6.4081051449       -0.3991295239
 H         4.7694241730       -5.3248944052        0.9475664325
 H        -0.5797409157       -6.3411934366        2.7417081688
 H         0.7020778726       -6.5488561840        3.8987186349
 H        -1.1808801680       -8.7174400338        2.5254692647
 H        -1.3047552493       -8.3236612436        4.2513707026
 H         0.4800364699      -13.4245144615        2.4209791885
 H         1.7995084833      -12.5470120320        1.6584034771
 H        -0.5421453698      -13.1212117577       -0.2831448255
 H         0.6069689092      -14.1998290934        0.1954309445
 H         1.8131632979      -10.9107768048       -4.1891952762
 H         1.7935485702      -10.5210009616       -2.5458314568
 H        -0.3214097955      -10.1576505826       -4.7293807596
 H         0.7058435283       -8.9196970653       -4.0671550280
 H        -2.9964004444       -5.9285941457       -5.1283672473
 H        -2.0531443212       -7.2806922499       -5.9679223058
 H        -0.1766090321       -5.7728053936       -6.2276773776
 H        -0.8955790921       -4.6031166539       -5.1513448420
 H        -3.7226190002       -2.4837496756       -7.3548634833
 H        -3.5026083737       -2.0035622937       -8.9058187489
 H        -3.0721403135        0.3973697595       -7.0042276928
 H        -4.6933791279       -0.4676833417       -6.9622576433
 H        -3.6950109345        4.0970524322      -10.7350864100
 H        -2.8686780843        2.5064235867      -10.9177268090
 H        -0.6679840679        3.9732338412       -9.9804100231
 H        -1.8125089007        5.3149170029      -10.1158647161
 H        -3.5638214809        5.7123254294      -14.5671388387
 H        -2.4225263432        6.8314111439      -15.2451691232
 H        -3.5792680640        8.4944229816      -14.1663272353
 H        -4.9265687303        7.3937304343      -13.6995572555
 H        -2.1744223811        9.2094540923      -17.9257615612
 H        -3.0489064829        9.6419304519      -19.3838341877
 H        -1.3152627916        7.9444009308      -20.0963063224
 H        -2.9425758699        7.3117817745      -20.2492156453
 H        -0.9185125675        3.7386510786      -16.3108891682
 H        -0.6099177855        2.6217173180      -17.7630482917
 H        -2.5701710001        2.6387718692      -15.4325053994
 H        -1.7077211417        1.2283417738      -16.0719530008
 H        -7.4409351518        0.9450913291      -18.2563510977
 H        -5.8828470513        0.6512619646      -18.9360243280
 H        -6.6067638987        2.2899546366      -20.5743605582
 H        -5.8201020374        3.2028517337      -19.4113383020
 H       -11.3193628980        1.9581645255      -18.3944034770
 H       -10.1020853834        0.8563412593      -17.7587200167
 H       -11.1509008850       -0.8809283377      -19.3531632211
 H       -12.1178398763        0.2837247023      -20.1248893358
 H       -15.6128439021        0.7157465242      -19.2822151930
 H       -16.4875270970       -0.7997648279      -19.4307324649
 H       -15.8326409676       -0.1917947322      -20.8220065350
 H       -12.5349022356       -2.9044237222      -19.3459490479
 H       -13.3137204540       -3.5708229406      -17.8336979207
 H       -11.8737179996       -2.7072628091      -17.6948210581
 H       -15.4903207816       -0.7755339848      -17.2319541023
 H       -14.2192812297       -1.0993686753      -16.0466156934
 H       -15.0613440868       -2.4912344288      -16.8479093072
 H       -10.2009451506        3.9425559509      -18.1277011376
 H       -11.4632197755        3.7905573252      -19.5928171695
 H       -10.1988535380        5.0502351904      -19.4658766294
 H        -8.7460140199        2.7246236580      -22.1247905647
 H        -9.2640964509        4.2609232033      -21.8916107880
 H       -10.4798505432        3.0357765484      -21.9082831752
 H        -5.3943224502       -1.0616952954      -16.1418291409
 H        -3.9646416120       -1.0543742287      -17.1188591609
 H        -5.5100450861       -0.7318789030      -17.8466840332
 H        -3.7434849091        1.1138109331      -14.6521701575
 H        -5.3054807267        0.4645344792      -14.5172701891
 H        -4.9213479650        2.2495785918      -14.7644032756
 H        -2.0861443084        5.4196983659      -21.1763996793
 H        -3.4094753979        4.7226869762      -20.3346606926
 H        -2.1713283627        3.7291936021      -20.8292081976
 H         0.3258128529        5.1866873133      -19.9328048017
 H         0.1502830767        3.6433934486      -19.1219844397
 H         0.3847162895        5.1388013947      -18.1689084437
 H        -6.8191562665        9.3425317497      -16.1880377267
 H        -6.7731394702        8.5725026296      -17.7381132274
 H        -6.0838466686       10.1927694754      -17.7426142342
 H        -3.1525923692        9.6673445724      -15.6805726525
 H        -4.6195541170       10.0945610110      -15.1634919567
 H        -4.1724067559       10.7400758594      -16.7513564662
 H         0.7107857107        6.6302010300      -11.0563529701
 H        -0.9243894282        6.8251826864      -10.5538687726
 H        -0.1564265998        7.8695589959      -11.7568775704
 H        -0.6089973653        5.3997537851      -14.5870005448
 H         0.9588946973        5.5888474793      -13.6861258393
 H         0.0193427261        7.0022420260      -14.1204027281
 H        -5.3478804500        2.2208713698      -10.5546112640
 H        -5.6510000476        3.7422711722       -9.8255181531
 H        -6.6257915878        2.3315209305       -9.4281135474
 H        -5.6147639626        3.6596257026       -7.2489803101
 H        -4.3529364653        2.6812447719       -6.3481514877
 H        -5.7870559434        1.9210921385       -6.8838263096
 H         0.7552608331       -4.4010283905       -7.3673373887
 H         0.5738884334       -2.8948658007       -6.6830751915
 H         0.8540346842       -2.8657372908       -8.3890990117
 H        -0.6605652202       -4.8107054235       -9.6799347251
 H        -0.9157695276       -3.1404170303      -10.1532956803
 H        -2.2186897926       -4.3513411221       -9.4019120389
 H        -3.5097752640       -9.8680492222       -4.2582872148
 H        -2.2191695322       -9.3413655250       -5.3635649004
 H        -3.6315666748       -8.2673755160       -4.9578306861
 H        -3.9026192934       -7.3204389001       -2.6434433504
 H        -2.5605924618       -7.6184242679       -1.4192657209
 H        -3.6303435551       -8.9552904356       -1.9736580661
 H         3.4764902646      -12.2258254749       -2.2716245876
 H         3.0812657244      -13.2792945625       -3.7790950866
 H         3.6051117239      -13.9206192704       -2.2455970508
 H         1.2782140418      -14.9443268018       -3.4032772291
 H         0.0197023398      -14.7557262644       -2.0904440918
 H         1.7520876994      -15.3727893467       -1.7840081914
 H         1.1447141576      -12.8482145863        4.0981225317
 H         1.6252250679      -11.5584768097        5.2864785355
 H         2.3169180245      -11.5474296406        3.6463172813
 H        -1.2895483831      -12.4628617807        4.2406116123
 H        -2.0053530086      -10.9970710887        3.9158162735
 H        -1.0163041844      -11.1486201829        5.4780623076
 H         3.8259069509       -5.0490058922        2.7941528767
 H         4.0125003123       -6.7961385870        2.9894838021
 H         2.7288708015       -5.9099741852        3.8873515248
 H         1.0502695219       -4.4187078956        2.2929184106
 H         0.7746914624       -4.8544876190        0.6578538084
 H         2.3422457510       -4.1510756225        1.1326504317
 Na        1.1451919603       -9.2405437298       -0.2293868942
 Na       -5.7221462249        5.3729382459      -17.9004666205
