232

 C         4.4580220477       -5.8217136045       -0.0123097577
 C         3.0790658978       -6.4700416536        0.1913221563
 O         2.5934346497       -7.3162282509       -0.5581817644
 C         2.2794797908       -6.1054089285        1.5482969872
 C         1.4509896966       -7.3311807044        2.1487308112
 O         1.8438765093       -8.4495149521        1.8673863111
 C         0.2619669456       -7.1129683937        3.0562987826
 C        -0.5588986752       -8.3418248270        3.4054317666
 C         0.4397860859       -9.3793283917        3.9845158939
 O         1.4095177450       -8.9948291522        4.5901502049
 C         0.2529308647      -10.9080900245        3.5980586916
 C         0.2113367400      -11.2161838740        2.0417112607
 O        -0.1273839244      -10.4186803190        1.1538880970
 C         0.4495135807      -12.6385337796        1.6799314576
 C         0.4096803812      -13.0247119497        0.1910301425
 C         1.4461800953      -12.5067260663       -0.8174102656
 O         2.0036752016      -11.5107070909       -0.5082830734
 C         1.5848330114      -13.2372349598       -2.2375870782
 C         0.5764928683      -12.2857089877       -2.9158431541
 O        -0.5914826695      -12.5696805090       -3.0475592006
 C         1.1913960720      -10.8489042260       -3.3494338126
 C         0.1007036485       -9.8487641052       -3.8387243308
 C        -0.8990936953       -9.1266855369       -2.7752463405
 O        -0.7696114241       -9.0856324077       -1.5391342970
 C        -2.1314818797       -8.3931673249       -3.4472993323
 C        -1.5471641189       -6.9771330221       -3.9447221486
 O        -0.8966801975       -6.3192724998       -3.1340701135
 C        -1.9554116450       -6.4316805640       -5.3356202089
 C        -1.0776549285       -5.2742201652       -5.8401011222
 C        -1.8134042981       -4.4858044336       -6.9428066810
 O        -2.9160595065       -4.9542632016       -7.2810171831
 C        -1.1129709153       -3.4587064130       -7.9030050883
 C        -1.7692528792       -1.9336913067       -7.7732265287
 O        -1.0538999967       -1.0174498785       -7.4519313891
 C        -3.3532423335       -1.6228879174       -7.9854885690
 C        -3.7333696706       -0.1666660854       -7.5175934540
 C        -4.0733902557        0.7376942517       -8.6671080400
 O        -4.2201473174        0.2626261182       -9.7639079698
 C        -4.4775039462        2.2623751994       -8.5804570515
 C        -3.1504145603        3.0227406923       -8.9076608693
 O        -2.3255174394        3.3119819617       -8.0304672708
 C        -2.9147172719        3.4987160248      -10.4114571375
 C        -1.6715164759        4.4011055685      -10.5110251710
 C        -1.1461414721        4.6294712429      -11.9512425757
 O        -0.8146558078        3.6964023058      -12.6552675771
 C        -1.0210190892        6.0928872918      -12.6061375440
 C        -2.3875388429        6.6494840938      -12.9422810866
 O        -3.0511841812        7.1349450422      -12.0739258653
 C        -3.0263836200        6.4973108800      -14.3182122032
 C        -4.1770492144        7.5860563089      -14.4570957614
 C        -4.8977066040        7.6323638157      -15.8121349732
 O        -5.6446251129        6.6741691256      -16.0258102082
 C        -4.7910311490        8.7919468763      -16.8509783365
 C        -4.2531240793        8.1928918003      -18.1370453158
 O        -4.8303452765        7.3009291607      -18.7482483151
 C        -3.0445260618        8.7591843527      -18.7690521269
 C        -2.3147199647        7.5217415882      -19.4022857718
 C        -1.8163488164        6.5449607481      -18.3616369627
 O        -1.5757687063        6.7584130096      -17.2013318805
 C        -1.6068652418        5.0640106796      -18.8863733302
 C        -2.2723553918        4.0322235716      -17.8835026946
 O        -3.4675459999        4.0816499222      -17.6954861188
 C        -1.4324401352        3.0159264022      -17.1368740316
 C        -2.3879420666        2.1888386817      -16.3357619196
 C        -3.4521671414        1.5300471104      -17.2986592739
 O        -3.3792646294        1.5818290608      -18.5203716880
 C        -4.7504710749        1.0046427451      -16.6270061427
 C        -5.8224596451        1.9878639537      -17.2382755715
 O        -5.9051864434        3.1600100130      -16.9053396503
 C        -6.4570273060        1.6218164888      -18.6143567165
 C        -6.7771120643        2.6961907047      -19.5688200914
 C        -8.0077464775        3.5352725226      -19.2453344163
 O        -7.8409582922        4.6111446232      -18.6565464609
 C        -9.3258979371        3.0801947530      -19.8181828090
 C        -9.5468612719        1.4811840262      -19.5659793312
 O        -8.8050882342        0.7175534234      -20.1096899938
 C       -10.6573602694        1.0063246897      -18.6160310981
 C       -11.7358076520        0.0993953737      -19.2011014061
 C       -12.7280482930       -0.3096456904      -18.1235849691
 O       -12.8597737298        0.5239520853      -17.2281492539
 C       -13.7958730464       -1.4774069705      -18.2294242304
 C       -14.3998934951       -1.0871627741      -19.6467421298
 O       -13.7586479235       -1.1675780657      -20.6365942176
 C       -15.7977892031       -0.4710861644      -19.6455259958
 C       -13.1193262515       -2.8275323292      -18.2712922834
 C       -14.7931153610       -1.5476849923      -17.0469595324
 C       -10.3966883820        3.9679679079      -19.2194466594
 C        -9.2311391139        3.1246231689      -21.3750063946
 C        -4.8429621021       -0.4936129006      -16.9544053644
 C        -4.7403447197        1.0974342180      -15.0696466723
 C        -2.2821086102        4.8252337397      -20.2721639753
 C        -0.0961330515        4.8542302890      -19.1280688636
 C        -6.3392829292        9.2661160538      -17.2125483972
 C        -4.0481370074       10.1273776686      -16.3227432315
 C        -0.3860542275        6.9640594575      -11.4896705137
 C         0.0359433400        5.8603897578      -13.7865910508
 C        -5.6093388690        2.5615684450       -9.5767441152
 C        -4.9225331889        2.6681766570       -7.1654752702
 C         0.4335154467       -3.5548772944       -7.7574828461
 C        -1.3007674925       -3.8987675691       -9.3786440536
 C        -2.8348069399       -9.2962923134       -4.5137289044
 C        -3.1814710601       -7.9628998639       -2.3983488599
 C         3.0348661146      -13.2005849301       -2.8712183363
 C         1.0703352220      -14.7046216834       -2.2715140098
 C         1.4379385144      -11.6366713618        4.2654214245
 C        -1.0913487737      -11.3493159287        4.2662564648
 C         3.2382758314       -5.7970975345        2.6383965682
 C         1.4125620950       -4.7207526670        1.3471356631
 H         4.4974467460       -5.2863334552       -0.9369073734
 H         5.2536438606       -6.5587733785       -0.1134305034
 H         4.6916097274       -5.1288784835        0.7485973363
 H        -0.5013758229       -6.3279348266        2.6620244853
 H         0.7505115497       -6.6198469251        3.9896164508
 H        -1.0921975476       -8.7391425204        2.5149610069
 H        -1.3352398002       -8.1183968795        4.1096917519
 H        -0.4120245591      -13.2950230888        2.2031677025
 H         1.3621195170      -13.0537163032        2.1375495739
 H        -0.6219479934      -12.7351415127       -0.2130066543
 H         0.2817188439      -14.0993923296        0.1542585388
 H         1.9634469689      -11.0344044154       -4.1156344879
 H         1.7806900607      -10.5565911550       -2.5001675895
 H        -0.5423995712      -10.4542272560       -4.5591500688
 H         0.5022184035       -9.0194429857       -4.4616508523
 H        -3.0061735045       -6.0842753307       -5.1274961032
 H        -1.8904654188       -7.2570559665       -6.1001310834
 H        -0.0703326113       -5.5751599744       -6.2945024958
 H        -0.8616716721       -4.4855760013       -5.0696698875
 H        -3.9578229869       -2.3532223670       -7.6372697080
 H        -3.5023945940       -1.7071381804       -9.0337751698
 H        -2.8475803260        0.3230955081       -7.0067987855
 H        -4.5331478366       -0.3007886572       -6.7666539939
 H        -3.8914396599        4.0823226688      -10.6323039605
 H        -2.7912301346        2.6148176610      -11.1103593606
 H        -0.8107026993        3.9034362920      -10.1088341111
 H        -1.8090615240        5.3509597228      -10.0511663881
 H        -3.5113018027        5.5470323349      -14.3571794084
 H        -2.3495340500        6.6391867709      -15.1746547621
 H        -3.6297505213        8.4024883588      -14.0965937988
 H        -5.0876190931        7.3804610073      -13.8109439367
 H        -2.4759872141        9.2499500220      -18.0153882836
 H        -3.2992778861        9.5193560882      -19.4936078432
 H        -1.4333657653        7.8212580871      -19.9503734566
 H        -2.9995515447        7.0726706526      -20.0667300434
 H        -0.6925771923        3.5078263243      -16.4445409658
 H        -0.9386174376        2.3588801805      -17.8556175826
 H        -2.8165864766        2.8840400422      -15.5585573070
 H        -1.9400485013        1.3454574072      -15.7546375664
 H        -7.4208861549        1.1062290501      -18.3880360052
 H        -5.7769349615        0.8801519116      -19.1364827590
 H        -6.9392381987        2.2654519547      -20.5662633363
 H        -5.9281911136        3.3616015141      -19.7645657607
 H       -11.1844947498        1.8773501525      -18.1953627701
 H       -10.1081251172        0.4902757457      -17.8011085526
 H       -11.1991087785       -0.7706090570      -19.7435074178
 H       -12.2863566341        0.5584429912      -19.9442725353
 H       -15.7982204265        0.4045983497      -18.9205599114
 H       -16.6358977313       -1.0653367489      -19.3863785577
 H       -15.9873704815       -0.0612323903      -20.6005506916
 H       -12.9108553145       -3.0158625330      -19.3472301237
 H       -13.7924979740       -3.5414156786      -17.6831561281
 H       -12.2057081117       -2.8751559822      -17.7363229489
 H       -15.3657639094       -0.5264504479      -17.0349422583
 H       -14.1716961652       -1.5322821980      -16.1585394159
 H       -15.4507424342       -2.4526218823      -17.0893699569
 H       -10.2522186137        3.9014131540      -18.1504609880
 H       -11.4748875427        3.9083077185      -19.5627011444
 H        -9.9748723840        5.0178623046      -19.4043343746
 H        -8.3998483188        2.6717298226      -21.8489607796
 H        -9.2696213575        4.0747678951      -21.9240179837
 H       -10.1766954405        2.5816459740      -21.6677284853
 H        -5.4194204393       -1.0307111431      -16.1978880162
 H        -3.8709421343       -1.0154898264      -16.9303977568
 H        -5.2781461909       -0.6727253737      -17.9648983662
 H        -3.7349384587        0.8233681549      -14.6539720330
 H        -5.4830898992        0.4349707473      -14.7509543905
 H        -4.8172183826        2.0984625813      -14.7689777767
 H        -2.1095402462        5.5856073594      -20.9457842769
 H        -3.3350091841        4.5968752430      -20.1285349208
 H        -1.8806307056        4.0265422863      -20.7060595249
 H         0.2846627292        5.7189750613      -19.7360455673
 H         0.1605006096        3.8601336165      -19.6503403473
 H         0.4665008850        4.8395961565      -18.1715038803
 H        -6.7670942083        9.7721219120      -16.2911912015
 H        -7.0322208315        8.5173840872      -17.4504040784
 H        -6.1650189723        9.9012055277      -18.0811564895
 H        -3.0860227861        9.8728185674      -15.8081185440
 H        -4.5986188274       10.4626241643      -15.4902327391
 H        -4.0213171815       10.7924236508      -17.1985260571
 H         0.6136128861        6.7750385156      -11.3034811731
 H        -0.8995456474        6.8024067183      -10.5790545540
 H        -0.3368387874        8.0001653398      -11.7986045975
 H        -0.5136159389        5.6343076441      -14.7265672437
 H         0.6941473641        5.0339733829      -13.5072780680
 H         0.7056116026        6.6649929536      -13.9457686722
 H        -5.3059890141        2.1200086046      -10.5211690479
 H        -5.6921237976        3.6349400940       -9.7177606187
 H        -6.4810817419        2.1198091061       -9.2292371595
 H        -5.1633594468        3.7125658999       -7.1386127059
 H        -4.1756328338        2.4467195974       -6.4049878714
 H        -5.7902437947        2.1448823378       -6.8182726988
 H         0.7093607995       -4.5406280371       -7.9052744257
 H         0.7034316499       -3.3421749781       -6.7573711951
 H         0.8966089666       -2.9079626622       -8.3992712038
 H        -0.7881496073       -4.9119669150       -9.3843988749
 H        -0.7007045486       -3.2742802750      -10.0047790654
 H        -2.3390613452       -4.2876320435       -9.4965199711
 H        -3.1810358019      -10.1855519113       -4.0805164191
 H        -2.0643993949       -9.4328386994       -5.2232509930
 H        -3.6669002875       -8.7155400056       -4.9963036710
 H        -3.7015064253       -7.0990517055       -2.8108461940
 H        -2.7454725196       -7.8506042289       -1.4481054112
 H        -3.8606873433       -8.7706180754       -2.4262024741
 H         3.3632373638      -12.1768559847       -2.8630678764
 H         3.0634481680      -13.7107911026       -3.8146483398
 H         3.8795005697      -13.6766810531       -2.1954175140
 H         1.1249918160      -15.0926075244       -3.3192010590
 H         0.0961066931      -14.7293917655       -1.8216309779
 H         1.7956733320      -15.3179378077       -1.7244871333
 H         1.6312635823      -12.6190371830        3.9628668071
 H         1.1308525806      -11.6625755541        5.3086751701
 H         2.3145884951      -11.0447247252        4.2497257766
 H        -1.1953463455      -12.4224928883        4.2917256599
 H        -1.9119271114      -11.0946515540        3.6550339719
 H        -1.1593995731      -10.9579108446        5.2678297140
 H         3.8810078042       -4.9623730082        2.3646386330
 H         3.8886494365       -6.6301735622        2.8755143852
 H         2.7833139323       -5.4617692090        3.5935806842
 H         1.1584179402       -4.2031132699        2.2567881017
 H         0.4442050223       -4.7824371115        0.8394606709
 H         2.0197448416       -4.0583191871        0.7561288224
 Na        1.2588659447       -9.2300353844       -0.3248749496
 Na       -5.7079264904        5.3501444412      -17.8185620798
