232

 C         4.4197807039       -5.8945282175       -0.3327995042
 C         3.0833849489       -6.5445860557        0.1294303805
 O         2.4859017112       -7.3603215932       -0.5398928030
 C         2.3055526217       -5.9882289182        1.4276276140
 C         1.6046067987       -7.1498015315        2.1017155310
 O         1.8892283701       -8.2812603854        1.8111978937
 C         0.3209932290       -6.8722381412        2.9428762934
 C        -0.3801455484       -8.2662480278        3.1447095072
 C         0.5934996100       -9.3024906324        3.7534066535
 O         1.3431283105       -8.9259065060        4.6255370907
 C         0.4034006518      -10.9231517515        3.5012544936
 C         0.3173849534      -11.3417644803        2.0269789202
 O         0.0476789588      -10.4839607997        1.2196798179
 C         0.2501639405      -12.8300019328        1.5975250397
 C         0.1979302061      -12.9250894236        0.0557867505
 C         1.3698015851      -12.5213917918       -0.7345606457
 O         2.2004822653      -11.6654151265       -0.3397567311
 C         1.4419079155      -13.2027069855       -2.1526055545
 C         0.4947730712      -12.2483170473       -2.9192631365
 O        -0.5762113608      -12.6857840931       -3.2731833908
 C         1.0547937313      -10.8244206146       -3.2838757809
 C        -0.0178719728      -10.0034584352       -3.8564971130
 C        -0.8510766241       -9.1533382441       -2.8111149291
 O        -0.6072190683       -9.0208603087       -1.6188925986
 C        -2.0368958554       -8.4300578209       -3.4756837907
 C        -1.3237133099       -7.0529155965       -4.0211878908
 O        -0.5525068214       -6.4375079562       -3.3162783783
 C        -1.7025702565       -6.5661189171       -5.5116434341
 C        -1.1451371117       -5.1198834676       -5.7571640169
 C        -1.9799264620       -4.3030361097       -6.8826389784
 O        -3.1328488047       -4.5002213032       -6.9152754657
 C        -1.2607216011       -3.3818602816       -7.9409656974
 C        -1.7120631826       -1.9789764968       -7.6720850591
 O        -0.8858475277       -1.1878465273       -7.2893146767
 C        -3.2072461833       -1.7135619114       -7.8417353360
 C        -3.5375063469       -0.1843576535       -7.4836513500
 C        -3.9880377714        0.6576104721       -8.6306989222
 O        -3.9958754022        0.1878740323       -9.7624460544
 C        -4.2469418939        2.1187199007       -8.4243392208
 C        -2.9889627695        3.0220523968       -8.9517546013
 O        -2.1705673533        3.3009671354       -8.1639492486
 C        -2.8434675996        3.4352070809      -10.4417899746
 C        -1.7868594643        4.5593169316      -10.5117722039
 C        -1.1973424627        4.6109076057      -11.9742759298
 O        -1.0851183719        3.5862756384      -12.6039985006
 C        -0.9294154047        6.0716025105      -12.6033984216
 C        -2.4052213789        6.6499490522      -12.9464227018
 O        -3.0683302886        7.0406340438      -11.9771905289
 C        -3.0523987611        6.6135814714      -14.3363350006
 C        -4.0315893516        7.8355706324      -14.5624352077
 C        -4.8921355161        7.6548162362      -15.7632152528
 O        -5.6711131321        6.7490643364      -15.8887103256
 C        -4.9527101967        8.8394987826      -16.9484427915
 C        -4.3404476273        8.1115996337      -18.1552262448
 O        -4.9592329169        7.1931713164      -18.7059177805
 C        -3.0481041887        8.6476994509      -18.7722361619
 C        -2.1241626229        7.6010576719      -19.4173680196
 C        -1.7553776953        6.5720749411      -18.3142193205
 O        -1.6750141775        6.8560450597      -17.1185208836
 C        -1.5211489558        5.1413685399      -18.8026144973
 C        -2.1766860855        4.2060706320      -17.7784639004
 O        -3.3442202594        4.3771547881      -17.5246439021
 C        -1.4421143843        3.0119409850      -17.2121940151
 C        -2.2951676875        2.0941942908      -16.2853861431
 C        -3.3778090783        1.3963430587      -17.1510339025
 O        -3.1864506137        1.2406923421      -18.3154511061
 C        -4.7952110360        0.9535569797      -16.5632036156
 C        -5.8036238387        1.9620288408      -17.1661364605
 O        -6.0415071601        2.9773100655      -16.5988319565
 C        -6.1401743016        1.7592397433      -18.6054494284
 C        -6.5502592101        2.9152107908      -19.4962660494
 C        -7.8530039380        3.4955594192      -19.1354709761
 O        -7.7713372799        4.5874460880      -18.6405492320
 C        -9.2661798544        2.9700006039      -19.7243496938
 C        -9.5627086179        1.4553883866      -19.4833661643
 O        -9.0560477012        0.6069933503      -20.2649176557
 C       -10.5048294680        0.8324682916      -18.3724874564
 C       -11.6621298912       -0.0177713784      -19.1121141389
 C       -12.8563412938       -0.2864204755      -18.1900900991
 O       -12.9898416968        0.3927241342      -17.1947511060
 C       -13.9131503872       -1.3532521205      -18.4335960140
 C       -14.7901542517       -1.1382396859      -19.7064464796
 O       -14.2727713040       -1.1372176088      -20.8353479315
 C       -16.2040047161       -0.7776544667      -19.6534479812
 C       -13.3409211883       -2.7641681699      -18.6930929562
 C       -14.8433221562       -1.3115892351      -17.1489550125
 C       -10.4156808935        3.7603573014      -19.2144425610
 C        -9.2780110039        3.2067527939      -21.2518490486
 C        -5.0234593173       -0.5282708216      -17.1515862980
 C        -4.9651880272        1.0386242359      -15.0068074117
 C        -2.2216585969        4.7445131840      -20.1397997389
 C         0.0664654820        5.0423694288      -18.8331191187
 C        -6.4396759885        9.1864471383      -17.1460040189
 C        -4.1413572909       10.1581496321      -16.5536940502
 C        -0.3668997659        7.2095105561      -11.6429571173
 C        -0.0310505560        5.9896343944      -13.8333929566
 C        -5.5468617429        2.4320629584       -9.2932981667
 C        -4.5529751729        2.5603049298       -6.9365022143
 C         0.2540185250       -3.2162884318       -7.7240509291
 C        -1.7617242640       -3.8170524230       -9.3601422881
 C        -2.6815507427       -9.2374583154       -4.6124136881
 C        -3.2190128027       -7.9479132740       -2.4060995133
 C         2.8966290967      -13.0729411000       -2.6471046671
 C         1.0062155509      -14.7386358592       -2.1239665692
 C         1.4237440674      -11.6766456529        4.3530337770
 C        -1.0611056378      -11.2744929630        3.8819060161
 C         3.2979736948       -5.4025228173        2.4564262231
 C         1.3068577558       -4.9374117743        0.9838336642
 H         4.7458395880       -6.4611796180       -1.2491213597
 H         5.2535587545       -6.0046268089        0.3480119796
 H         4.2659926391       -4.7700207985       -0.5380230387
 H        -0.2401941863       -6.2010307191        2.3133786520
 H         0.4449206381       -6.3912297221        3.8837205783
 H        -0.7610006670       -8.7622077100        2.2655619276
 H        -1.2187454802       -8.1474152668        3.8385681350
 H        -0.5260166373      -13.3194234880        1.9772953482
 H         1.1227070086      -13.3302984638        2.0264037634
 H        -0.7170683204      -12.4744122532       -0.2649608299
 H         0.0068973924      -13.9718003322       -0.2408413011
 H         1.8813988960      -11.0538794898       -3.9640060743
 H         1.5972500015      -10.3420784875       -2.4232669699
 H        -0.7079598676      -10.6319449782       -4.3846166007
 H         0.3562123784       -9.3072582916       -4.6384492436
 H        -2.7824602807       -6.5925942801       -5.3727448593
 H        -1.3212309511       -7.2559181967       -6.2519142678
 H        -0.0924557193       -5.1131515632       -5.8994017215
 H        -1.3208394293       -4.6055406928       -4.8056753094
 H        -3.7568344208       -2.4775722320       -7.1265263411
 H        -3.5317779662       -2.0442190750       -8.8504483780
 H        -2.7068776651        0.2713411364       -7.0274183915
 H        -4.3468951126       -0.2892480935       -6.7645515886
 H        -3.7094274227        3.7837269378      -10.8460378130
 H        -2.4735200482        2.5870735530      -11.0167788591
 H        -0.9114347020        4.5801533690       -9.7978980455
 H        -2.3075275336        5.5342765662      -10.5283215318
 H        -3.8242414672        5.7899969305      -14.3499503238
 H        -2.2762331513        6.5434129494      -15.1082577496
 H        -3.3542205337        8.7794181167      -14.5742001830
 H        -4.6683158571        7.9503994421      -13.6932361083
 H        -2.4943855197        9.2978068138      -18.0187488616
 H        -3.3695317295        9.3132463935      -19.5841378948
 H        -1.2812798396        8.2561997269      -19.7611032545
 H        -2.6250158935        7.1207146034      -20.3095345281
 H        -0.6552733007        3.4260744337      -16.6404798216
 H        -1.1275255216        2.3215973251      -17.9807219605
 H        -2.7507120282        2.7468944820      -15.5679447109
 H        -1.7449059772        1.3659491835      -15.7566294280
 H        -6.8465311237        0.9049883041      -18.6485841572
 H        -5.1859798056        1.4229663464      -19.0411669523
 H        -6.5671560572        2.6161536662      -20.5564045398
 H        -5.7921160742        3.7326981735      -19.5626814685
 H       -11.0069050514        1.5468800334      -17.7315342764
 H        -9.8876855176        0.1199489228      -17.8111717354
 H       -11.2192181707       -0.8571003957      -19.5321567381
 H       -12.1264978641        0.5362294462      -20.0321710980
 H       -16.5398017726       -0.0593090658      -18.9347752849
 H       -16.7850387175       -1.7347608405      -19.4108579014
 H       -16.5318227384       -0.3677552364      -20.6513950727
 H       -12.5572530368       -2.6264854520      -19.4251480289
 H       -14.1237500235       -3.4377178411      -18.8207408758
 H       -12.8390441189       -3.0782862095      -17.7115720802
 H       -14.7916258961       -0.3894203536      -16.6888423788
 H       -14.4917957446       -2.0728994363      -16.4321778500
 H       -15.8355602495       -1.5582422802      -17.4556540479
 H       -10.5638633808        3.5460967640      -18.1248717832
 H       -11.2770775462        3.2954668076      -19.6173563257
 H       -10.3795276806        4.7545269813      -19.4862282462
 H        -8.5132868171        2.6276613698      -21.8320421137
 H        -8.8560983385        4.2005921708      -21.3996725679
 H       -10.2014256817        3.2078479200      -21.7809727896
 H        -6.0791277732       -0.7353404665      -17.3276858510
 H        -4.7951657888       -1.3309128421      -16.4494420390
 H        -4.4711575920       -0.6457868533      -18.0641838260
 H        -4.4266946843        0.2909792736      -14.4598941728
 H        -6.0884862057        1.0866882256      -14.8772492266
 H        -4.4902800969        2.0235347668      -14.7081224622
 H        -1.5168062084        4.9187542529      -21.0503808312
 H        -3.2148053438        5.2441990936      -20.1953890956
 H        -2.4210042280        3.5785051377      -20.2038609591
 H         0.4910792749        5.9467877772      -19.1865426186
 H         0.3171799852        4.2715020897      -19.4995364315
 H         0.5444848237        4.7819552053      -17.8752312784
 H        -6.8887961765        9.9221379152      -16.4799620011
 H        -6.9153937666        8.1754782447      -16.9614246850
 H        -6.6515128201        9.5053724943      -18.1854845853
 H        -3.1145737190        9.8664568473      -16.3076362307
 H        -4.6137104384       10.7027142684      -15.6781208982
 H        -4.2094593815       10.7007209580      -17.4729377952
 H         0.5877650928        6.9242488106      -11.0856772402
 H        -1.1159234531        7.4284680050      -10.8516868052
 H        -0.0363662559        8.0864017577      -12.1787618892
 H        -0.5641345200        6.0009777599      -14.7502248039
 H         0.5813650586        5.1249408756      -13.6792301648
 H         0.7242053434        6.8057492077      -13.8751848060
 H        -5.1906256922        2.2372530564      -10.3163684402
 H        -5.7610729586        3.5320797432       -9.2398876590
 H        -6.4177287935        1.7098211304       -9.0464170102
 H        -4.5841355182        3.6775818008       -6.8829987602
 H        -3.7936192252        2.3271564917       -6.2329968948
 H        -5.5135357512        2.3091227298       -6.4763293696
 H         0.7307308119       -4.1308507612       -8.2073496009
 H         0.4302555384       -3.1594495873       -6.6366441940
 H         0.6960761662       -2.3110610661       -8.3019295855
 H        -1.7518575500       -4.8696284913       -9.5323082278
 H        -1.1102612448       -3.2204006274      -10.0288648397
 H        -2.7784063725       -3.6271272317       -9.3168039862
 H        -2.7105611844      -10.2846075435       -4.2232875139
 H        -2.2278762326       -9.0738628789       -5.6339773323
 H        -3.6918315218       -8.8853031329       -4.7097221705
 H        -3.7765402966       -7.2610554149       -3.0162439654
 H        -2.6842174200       -7.5947321061       -1.5051911840
 H        -3.8822619926       -8.7817033625       -2.1554345946
 H         3.2400370053      -12.0528777321       -2.8305151406
 H         2.9380554464      -13.6887633219       -3.5564304799
 H         3.5785456909      -13.4283834663       -1.9591983958
 H         1.3159213785      -15.1135615723       -3.0477094877
 H        -0.0630871246      -14.6987420539       -2.1326469205
 H         1.4339813359      -15.3222543951       -1.2812821355
 H         1.4122900413      -12.7722339575        4.0849353819
 H         1.2117264628      -11.5714871839        5.3812779217
 H         2.3843899645      -11.1997446748        4.1962744973
 H        -1.2711001385      -12.3290743175        3.9825077852
 H        -1.8618361101      -10.8214718183        3.2864738166
 H        -1.1437169181      -10.8979597517        4.8998304289
 H         3.7456152769       -4.4696539314        2.1839856856
 H         4.0525095764       -6.1500934593        2.5705146108
 H         2.9306180112       -5.2410166716        3.4315898267
 H         0.7693612848       -4.4592826235        1.8090297567
 H         0.4959296889       -5.2868545272        0.3549639992
 H         1.7789012358       -4.2044137329        0.3023181530
 Na        1.3993709582       -9.3039944615       -0.3758380103
 Na       -5.7309536012        5.1002843873      -17.7133693805
