232

 C         4.4059244399       -5.7709367348       -0.6976199165
 C         3.1073210934       -6.4968370770       -0.2417422581
 O         2.7546291207       -7.4920590503       -0.8567100011
 C         2.2599231618       -5.8564939785        0.9538975997
 C         1.7093798043       -7.1401545866        1.7839659398
 O         2.2206508743       -8.2372504912        1.6948116107
 C         0.5115658625       -6.8869689975        2.8061838279
 C        -0.2992595795       -8.1313540311        3.1268878101
 C         0.5254595898       -9.3233594502        3.8190711549
 O         1.4501481925       -9.0273185999        4.5383831460
 C         0.1204561401      -10.8662900502        3.5998397136
 C         0.1525043909      -11.2185216949        2.1342311658
 O         0.0238318441      -10.3639052809        1.2950657641
 C         0.3396551737      -12.7196453678        1.6799578647
 C         0.0955333166      -13.1277759688        0.2371206224
 C         1.2322733162      -12.6928706543       -0.6053305140
 O         2.0880074212      -11.8947502394       -0.1407579161
 C         1.4992766633      -13.2710746617       -1.9887499652
 C         0.6410537589      -12.2691445201       -3.0809769850
 O        -0.3995958792      -12.7109581319       -3.5017469348
 C         1.1496541137      -10.8752960382       -3.5172654418
 C         0.0344211890      -10.0657536501       -4.1893331741
 C        -0.7332082600       -9.2011568055       -3.1915135441
 O        -0.3749874705       -9.0659674158       -2.0486649754
 C        -1.9244447394       -8.2309011582       -3.6664438752
 C        -1.1693257687       -7.0368029075       -4.3119004276
 O        -0.2639325032       -6.5337843313       -3.6908018687
 C        -1.6089915987       -6.3609162276       -5.5236349561
 C        -1.1096083698       -4.8862177043       -5.4706582523
 C        -1.9717308441       -4.1989079508       -6.6225127718
 O        -3.1672828930       -4.2958912563       -6.5237681558
 C        -1.3376973090       -3.4527047187       -7.8783224894
 C        -1.6352896762       -1.9528428384       -7.5111824244
 O        -0.9086390557       -1.2566347044       -6.8747339991
 C        -3.2197698524       -1.6240352677       -7.6003933915
 C        -3.4956973579       -0.1872315556       -7.2772688514
 C        -3.7423878463        0.7130723274       -8.5376797261
 O        -3.6150154279        0.2974189599       -9.6859309016
 C        -4.0272711517        2.2409507449       -8.2701296792
 C        -2.7612448899        3.0010161637       -8.8828194978
 O        -1.8584507532        3.3072526745       -8.1916577164
 C        -2.7210772153        3.2888421082      -10.4221377645
 C        -2.1214624174        4.6041341489      -10.6704424446
 C        -1.4268499873        4.6513813675      -12.0414676154
 O        -1.3727267349        3.7033612442      -12.7963931788
 C        -1.0821107289        6.1405753548      -12.5864374934
 C        -2.5609028432        6.8013184779      -12.8308287438
 O        -3.3227288317        7.2298442097      -11.9690793537
 C        -3.0124304243        6.7750073883      -14.2409894796
 C        -3.8838608972        8.0481455959      -14.6522457574
 C        -4.7866996799        7.7161972681      -15.7499026225
 O        -5.3920200926        6.6476855298      -15.7889110731
 C        -5.0841962920        8.7769950249      -16.9154605912
 C        -4.3106899917        8.1336931800      -18.1930573814
 O        -4.6537713865        7.0274615201      -18.4939163440
 C        -3.1454980209        8.8059135586      -18.9394898077
 C        -2.3151231132        7.6268209582      -19.5183405368
 C        -1.8566756488        6.6627431292      -18.3635923215
 O        -1.7790397899        7.1005056317      -17.2194614843
 C        -1.4467140872        5.1476777275      -18.6486476229
 C        -2.2450144377        4.1908209472      -17.5518411224
 O        -3.3236435620        4.5852870515      -17.1533072818
 C        -1.5466366647        2.9395721021      -16.9793848973
 C        -2.5110458937        2.0366188131      -16.1186806200
 C        -3.3435772107        1.0841775142      -17.0154140924
 O        -2.8323524483        0.5454992367      -17.9662083309
 C        -4.8522374495        0.8079322677      -16.5917453275
 C        -5.7401157730        1.9270669250      -17.2927885747
 O        -6.0973341006        2.9200592477      -16.6703909456
 C        -5.9457894074        1.6746978405      -18.8853382108
 C        -6.5466888967        2.8360249807      -19.6745260099
 C        -7.8857448882        3.4462304184      -19.0385624130
 O        -7.8937551437        4.3039352265      -18.1772536164
 C        -9.3222628958        2.9710666560      -19.6538516502
 C        -9.5070416698        1.3267860431      -19.4989065933
 O        -8.8210043119        0.6441037280      -20.2591805797
 C       -10.5924468978        0.6895007501      -18.5182463436
 C       -11.7261292822       -0.2193852247      -19.1324419088
 C       -13.0044628702       -0.2416577152      -18.1987348593
 O       -13.0882418987        0.4620162869      -17.2388664353
 C       -14.1571168755       -1.2693991923      -18.6356105548
 C       -15.0872217147       -0.8048741197      -19.8971725621
 O       -14.5006085241       -0.6857504190      -21.0003839902
 C       -16.5812496319       -0.9648308355      -19.5460181934
 C       -13.3786106047       -2.5723350096      -19.0778342395
 C       -15.0010748751       -1.5442111866      -17.3703873809
 C       -10.5028351523        3.7422475087      -18.9899964034
 C        -9.3141786176        3.2702300428      -21.1117914610
 C        -5.1689201663       -0.6945516653      -16.9527801041
 C        -4.9116096576        1.1100457749      -15.0333996559
 C        -1.8076898763        4.6300134071      -20.1164849759
 C         0.0818986305        5.0069350785      -18.5312701943
 C        -6.6280151636        8.6565781470      -17.3246528984
 C        -4.6419854462       10.1789911418      -16.6548542806
 C        -0.1976453667        6.9061902282      -11.5601597538
 C        -0.3239194123        6.0151405011      -13.9128747838
 C        -5.3222115141        2.6724327233       -9.0686305284
 C        -4.2631614286        2.6475711914       -6.7744644971
 C         0.1896447177       -3.7795758463       -7.9283242844
 C        -2.1282301922       -3.7812871645       -9.1320864153
 C        -2.9106520336       -9.0167644908       -4.5999525450
 C        -2.7925078196       -7.7771742499       -2.4167623520
 C         2.9536647834      -13.1871772545       -2.4341768532
 C         1.0119352173      -14.7189201782       -2.2763973743
 C         1.2429941787      -11.7275913705        4.4064788652
 C        -1.2872324427      -11.0548559147        4.2618973888
 C         3.0996796811       -5.1865967711        2.0732168643
 C         1.1725028962       -4.9170731157        0.3610046732
 H         5.1926434084       -6.3728797784       -0.3009050208
 H         4.5214249327       -4.7583141943       -0.3375139439
 H         4.4796831487       -5.7842455772       -1.7677153085
 H        -0.1375562536       -6.0033441135        2.4043566669
 H         1.1190579418       -6.3670802553        3.6713187081
 H        -0.7863259344       -8.4487684365        2.2577605218
 H        -1.0614538236       -7.9027917648        3.8984649520
 H        -0.2066391035      -13.3944909946        2.3615575508
 H         1.4367152739      -13.0519226576        1.8756745317
 H        -0.7856173956      -12.6143578079       -0.1735553434
 H        -0.1758771192      -14.2488104783        0.1282135396
 H         1.9996424594      -11.0639712780       -4.1831028153
 H         1.6131767488      -10.3862207448       -2.6543114268
 H        -0.7138423849      -10.6602216032       -4.7660224937
 H         0.4403026954       -9.4168792772       -5.0075209992
 H        -2.7776358743       -6.4879431597       -5.4899696620
 H        -1.2475472556       -6.9195556347       -6.3930825633
 H        -0.0202711798       -4.7568398265       -5.7336668369
 H        -1.3183041177       -4.5214247169       -4.4150614024
 H        -3.6095104321       -2.3631505026       -6.9266933038
 H        -3.5896640629       -1.7830769206       -8.5324754703
 H        -2.5075892669        0.0248291749       -6.7659067099
 H        -4.3561381318       -0.0855515074       -6.6266746578
 H        -3.7852509860        3.2872670740      -10.7790390870
 H        -2.1391106112        2.4389839598      -10.8733930813
 H        -1.3429674919        4.7132056253       -9.9666157060
 H        -2.7854544285        5.5065336086      -10.6591589022
 H        -3.7387034288        5.9476008165      -14.3118786597
 H        -2.1979847316        6.6811619801      -14.9055817258
 H        -3.1791669090        8.8684311351      -14.9429343559
 H        -4.3046284677        8.4582725132      -13.7436540611
 H        -2.6370348754        9.4491247460      -18.2873980056
 H        -3.6718906860        9.3845025850      -19.6776161069
 H        -1.4407054776        8.0022782263      -19.9707963861
 H        -2.9499459357        7.1337630620      -20.2283219745
 H        -0.7787473915        3.3015938336      -16.2988014582
 H        -1.1874532993        2.2803041250      -17.8018407306
 H        -3.2259589607        2.7203462365      -15.6874132516
 H        -1.9501449277        1.5294765179      -15.2706134889
 H        -6.5630942214        0.6770758909      -19.0126884708
 H        -4.9756908251        1.4355179183      -19.3597646518
 H        -6.6048186804        2.5352121626      -20.7235206935
 H        -5.8883648531        3.7147818028      -19.7756535883
 H       -11.1790688688        1.4817194771      -17.9659548902
 H       -10.0727324510        0.0688155518      -17.8120601467
 H       -11.3719611173       -1.2105565756      -19.2597841097
 H       -11.9951740257        0.2100530208      -20.1457211839
 H       -16.8982230601       -0.1917548602      -18.9711299798
 H       -16.6864102607       -1.7953886888      -18.8643968367
 H       -17.2875052160       -0.8996280565      -20.3722129688
 H       -13.1235986624       -2.4861536574      -20.1343798247
 H       -14.1141477429       -3.3324445130      -18.9554219723
 H       -12.4507731699       -2.7423285589      -18.4418452526
 H       -15.7967478692       -0.8412355552      -17.2996054943
 H       -14.2729628096       -1.3362635507      -16.4938512488
 H       -15.4136360734       -2.5957517166      -17.3178567690
 H       -10.5843433043        3.5127609730      -17.9020883758
 H       -11.4894378598        3.3864380832      -19.2934849749
 H       -10.4012238536        4.7621954814      -19.3430167479
 H        -8.8451473833        2.3466865906      -21.5679100311
 H        -8.8113770979        4.1573569186      -21.5315050632
 H       -10.2880261955        3.3206176671      -21.5107314734
 H        -6.2477373252       -0.9754843483      -16.9162776422
 H        -4.6892946883       -1.3391362254      -16.2148036336
 H        -4.7708579480       -0.9651550381      -17.9266560664
 H        -4.0767237496        0.6261727950      -14.6617570330
 H        -5.8515140039        0.7336485065      -14.6201150399
 H        -4.9737709375        2.1703362421      -14.7830562999
 H        -1.5010791588        5.3594348445      -20.8035391187
 H        -2.7626011641        4.4286521990      -20.3316801105
 H        -1.1815983229        3.7623215483      -20.2720660873
 H         0.5534093169        5.2993186292      -19.5231783359
 H         0.3942083741        3.9696138190      -18.3386605470
 H         0.5242756823        5.6983421995      -17.7564668874
 H        -7.2189118806        8.6742132630      -16.4793831504
 H        -6.7514484455        7.7385903498      -17.9206723240
 H        -7.0011273028        9.5695609218      -17.7567796167
 H        -3.6077869540       10.1394449148      -16.7389332142
 H        -5.0600928928       10.4729581841      -15.6496309656
 H        -5.0858000595       10.9335355643      -17.3309920741
 H         0.6858248636        6.3626492585      -11.2177075577
 H        -0.7773488794        7.2653990030      -10.7465003873
 H         0.1281939197        7.8433035584      -11.9872886608
 H        -0.6614505654        5.1220888766      -14.4328734540
 H         0.7420556082        5.9283759822      -13.6797968629
 H        -0.4872068552        6.8532941291      -14.6182340648
 H        -5.4297914841        2.2162452945      -10.0128780822
 H        -5.3774038866        3.7002239002       -9.0490649614
 H        -6.1040798864        2.3243934334       -8.3937598245
 H        -4.5803100364        3.6604187195       -6.6579160974
 H        -3.3756241573        2.6530481788       -6.1495363800
 H        -5.0281243373        2.0851148188       -6.2841531009
 H         0.3846431094       -4.8024183141       -7.9488874391
 H         0.5636721453       -3.2285708175       -7.1651936242
 H         0.6261672274       -3.4193394691       -8.8264856572
 H        -1.6967549122       -4.6871367479       -9.5683171649
 H        -2.0313001667       -2.8010888212       -9.7293166915
 H        -3.2135380042       -3.8717396366       -8.8684168274
 H        -3.4829762271       -9.6732972384       -3.9083909370
 H        -2.4687108182       -9.5720973635       -5.4195807784
 H        -3.5822518179       -8.3794024704       -5.0495922827
 H        -3.6963304148       -7.3693319344       -2.7252675097
 H        -2.0770054886       -7.1395980554       -1.9234955823
 H        -2.8785457254       -8.6198034940       -1.7251440522
 H         3.5734088960      -12.3465021094       -1.9899933531
 H         2.9359977960      -13.0496180659       -3.5734491959
 H         3.3907514025      -14.0909974784       -2.1793065278
 H         1.4485364764      -15.0975890188       -3.1998424135
 H        -0.1105857191      -14.7105933717       -2.4252051422
 H         1.3246789786      -15.2437374961       -1.3936833858
 H         0.8284253974      -12.6181504373        4.8631803448
 H         1.5425757170      -11.0837139078        5.2003819041
 H         2.1384573644      -11.8901302982        3.8184205414
 H        -1.6294837670      -12.0655602702        4.1717867580
 H        -2.0431488719      -10.3564162348        3.8631018639
 H        -1.2533390036      -10.8541481691        5.3337305784
 H         3.7244732747       -4.3012692869        1.8510961248
 H         3.7096432964       -5.9549725814        2.6043268959
 H         2.4281418428       -4.8446205512        2.8700040652
 H         0.6674280359       -4.5579385615        1.2218540363
 H         0.4117697060       -5.2574264117       -0.3251083437
 H         1.5280219867       -4.0784192747       -0.2158211794
 Na        1.5493383035       -9.3966101654       -0.4203492519
 Na       -5.8647650214        5.2275789736      -17.2810258698
