232

 C         4.3623322640       -5.6787793095       -0.7892213361
 C         3.1378065035       -6.4546268791       -0.4083509235
 O         2.9247722137       -7.5422915273       -0.9491175618
 C         2.2075267465       -5.9669045067        0.8342138144
 C         1.6736678535       -7.1420903022        1.5945368543
 O         2.2411490028       -8.2239079640        1.5977281313
 C         0.6313816508       -6.8497008991        2.7407167576
 C        -0.2488091771       -8.0548943009        3.1951324594
 C         0.5606641700       -9.2163271383        3.8615085000
 O         1.5400533045       -9.0065302476        4.5227085302
 C         0.0796363273      -10.7983289703        3.6938192552
 C         0.0580036670      -11.2286985188        2.1746105753
 O        -0.1765655561      -10.3913787613        1.2837082383
 C         0.1218791073      -12.7792844179        1.8248919019
 C         0.2149838424      -13.2031004483        0.3359578775
 C         1.3120139944      -12.6652390984       -0.6193947599
 O         2.0392667610      -11.7263749505       -0.2364151037
 C         1.5324884335      -13.2258661360       -2.1534690751
 C         0.6497156319      -12.3531006006       -3.1150772409
 O        -0.4168531176      -12.7029919714       -3.5512208330
 C         1.2538460997      -11.0104582763       -3.6301095221
 C         0.0953167275      -10.1507380087       -4.2199145574
 C        -0.6233001643       -9.2378447083       -3.1906536002
 O        -0.2073315519       -9.1912504932       -2.0085460364
 C        -1.8065768388       -8.3342823397       -3.6174651069
 C        -1.1260490905       -6.9709062398       -4.2728421876
 O        -0.1131785476       -6.6200028023       -3.6654158068
 C        -1.6709932686       -6.2582265502       -5.4807908834
 C        -1.1677615998       -4.8171422270       -5.5213003805
 C        -2.0211413523       -4.1928850549       -6.6398663550
 O        -3.1852615868       -4.3399304407       -6.4475097453
 C        -1.3828315086       -3.5087494886       -7.8161070364
 C        -1.6801143259       -2.0752676864       -7.4093895299
 O        -0.8211926749       -1.4023664311       -6.8547870927
 C        -3.1027679109       -1.5137915915       -7.7190924934
 C        -3.4022230732       -0.0957352177       -7.1654167198
 C        -3.6749062392        0.8629538244       -8.3348610660
 O        -3.5511669120        0.4365457161       -9.4642793531
 C        -3.9983730509        2.3437247290       -8.1558491877
 C        -2.7267121205        2.9205794226       -8.8273318483
 O        -1.7786846233        3.3652248835       -8.2396627395
 C        -2.7185997244        3.1333623194      -10.4115156905
 C        -2.1014729208        4.5097684332      -10.6579325278
 C        -1.5616560687        4.6874324982      -12.1076539678
 O        -1.4950134674        3.6944228626      -12.8113423000
 C        -1.1584451769        6.1132717733      -12.6162676187
 C        -2.5511003080        6.8522215234      -12.8678194459
 O        -3.1140237187        7.3769430414      -11.8977529673
 C        -3.0245348908        6.7985202645      -14.2797671295
 C        -3.8888589260        8.1464847008      -14.6673631669
 C        -4.8017244268        7.7995477498      -15.7558590863
 O        -5.4076257438        6.7357760693      -15.7421439754
 C        -5.0444495667        8.7319038641      -16.9839849276
 C        -4.3133326009        8.0128647687      -18.1867861973
 O        -4.6153148128        6.8350371423      -18.4542501604
 C        -3.1650270572        8.6653371088      -18.9498452620
 C        -2.4485491610        7.4064156840      -19.5058186337
 C        -1.8677982147        6.5967535614      -18.3405045307
 O        -1.7621038333        7.0709546318      -17.2330304959
 C        -1.4453220492        5.1592764838      -18.5092805918
 C        -2.2570579280        4.3140260027      -17.5241932371
 O        -3.3824551524        4.5729448000      -17.1876135435
 C        -1.6259340286        2.9918382775      -17.0430924799
 C        -2.6723405583        2.2090793137      -16.2329536352
 C        -3.3575436792        1.0762829478      -17.0334413353
 O        -2.8149351950        0.3716422786      -17.8088847860
 C        -4.7827800124        0.7743695961      -16.5736577391
 C        -5.6325236755        1.8482580121      -17.3387116267
 O        -5.9258196158        2.8683970025      -16.8350690558
 C        -5.9631503464        1.6106286038      -18.7893141515
 C        -6.6758360955        2.7079307131      -19.5828673148
 C        -7.9457643465        3.3299676658      -18.9618388504
 O        -7.8450935466        4.1499493937      -18.0588409480
 C        -9.3657436010        2.9630208873      -19.6005897208
 C        -9.6070966959        1.3791816445      -19.4199063618
 O        -8.7963811879        0.6419534506      -20.0346173866
 C       -10.6488059846        0.7541559000      -18.5223175772
 C       -11.7278034203       -0.1004208425      -19.2944674097
 C       -12.9582303128       -0.3002168034      -18.4296032036
 O       -13.2279490870        0.4359742433      -17.4752737108
 C       -14.0919293674       -1.4025272764      -18.6698053373
 C       -15.0110682576       -0.8711805061      -19.8465853276
 O       -14.5865854225       -0.3477670495      -20.8440886912
 C       -16.4749211271       -0.8410935144      -19.6299980345
 C       -13.4292023163       -2.6878005928      -19.1736678844
 C       -14.8949089777       -1.4897805781      -17.2974035251
 C       -10.4986560574        3.7715241139      -18.9208138736
 C        -9.3262128965        3.2690009725      -21.1342507692
 C        -5.1448932557       -0.5897377430      -16.9760719447
 C        -5.0448145959        1.1420721689      -15.0749793109
 C        -1.8652794965        4.6384417651      -19.9373173912
 C         0.0846387299        5.1684894185      -18.3175024413
 C        -6.6519247837        8.4423753038      -17.3527091204
 C        -4.8551654296       10.2254030578      -16.7314469017
 C        -0.3358708223        6.9022613829      -11.5346653299
 C        -0.2643099558        6.0378765089      -13.8929122690
 C        -5.2437744258        2.6840830962       -9.0767427427
 C        -4.1431863199        2.7658010766       -6.7602020171
 C         0.1174275532       -3.5962932244       -7.9672812116
 C        -2.3165418341       -3.9084813463       -9.1062027129
 C        -2.8327909982       -9.0800767991       -4.5260539565
 C        -2.5826520734       -7.6696125832       -2.5037328454
 C         3.0411427610      -13.1831087951       -2.5183872777
 C         0.9106213823      -14.6554310542       -2.2466315135
 C         1.1227756285      -11.6745198454        4.5556667328
 C        -1.3113356149      -11.0336073019        4.2997249059
 C         3.0362068902       -5.2099791154        1.8731622625
 C         1.0764417511       -5.0958137733        0.2826087070
 H         5.0507444271       -5.9486522699        0.0376137307
 H         4.2761854288       -4.6400621506       -0.9103152216
 H         4.7649080788       -6.1794092466       -1.7281795195
 H         0.0471082216       -5.9174342341        2.4979031526
 H         1.3966786530       -6.4651673485        3.4146441450
 H        -0.8499137965       -8.3882765743        2.3583307490
 H        -0.8859176304       -7.7918054938        3.9992513022
 H        -0.6259938771      -13.2955288631        2.2883784471
 H         1.0655273008      -13.2121830521        2.2591998560
 H        -0.7136315121      -12.8881818497       -0.2133301301
 H         0.1714384046      -14.3193710645        0.3030541074
 H         1.9650888898      -11.2897539258       -4.4349069891
 H         1.9250676697      -10.5582420009       -2.8341394844
 H        -0.6665890747      -10.7612594375       -4.7392485668
 H         0.4690324651       -9.5250088884       -5.1018295095
 H        -2.7594109177       -6.3758410483       -5.4770070766
 H        -1.2761203485       -6.7850742877       -6.4218600274
 H        -0.0854676031       -4.7891860608       -5.7268506217
 H        -1.4005550419       -4.2814909889       -4.5462380514
 H        -3.7569355048       -2.3504442851       -7.4123514628
 H        -3.1264129482       -1.3787458634       -8.8265401618
 H        -2.5887198968        0.1459482748       -6.5579035908
 H        -4.3389534554       -0.1097593860       -6.6266823044
 H        -3.6402210152        3.0941923300      -10.8151554745
 H        -2.1022719699        2.2440207878      -10.7302049829
 H        -1.2423630083        4.6158205046       -9.9183885561
 H        -2.8001677646        5.3437691496      -10.5500334606
 H        -3.7719843553        5.9575065601      -14.2675814430
 H        -2.1734132517        6.6272759740      -14.9724904603
 H        -3.2133145570        9.0695476496      -14.8263035165
 H        -4.4117162759        8.4580258427      -13.7771264060
 H        -2.5165205282        9.2098384738      -18.1897077225
 H        -3.6194067909        9.3401597797      -19.6120892745
 H        -1.5202399697        7.7078076841      -20.0026942664
 H        -3.1088181290        6.8855120552      -20.1960639149
 H        -0.8687156723        3.1111880569      -16.3331635428
 H        -1.3510337043        2.3960390873      -17.8976161805
 H        -3.3581803882        2.9357352877      -15.8049491725
 H        -2.1520085402        1.7562799408      -15.4363617684
 H        -6.5577989026        0.6712687138      -18.7833572140
 H        -4.9982503629        1.3056208636      -19.3749597929
 H        -6.6996882460        2.3456475333      -20.6304371431
 H        -6.0632121041        3.6688496659      -19.6912816160
 H       -11.1940719490        1.4326933849      -17.8886525693
 H       -10.1112457379        0.0074957480      -17.8835264730
 H       -11.3483635545       -1.0486774003      -19.5775729607
 H       -11.9834475841        0.5361162637      -20.2172795755
 H       -16.8991133468       -0.1097507069      -18.8974738466
 H       -16.7701946640       -1.7498573752      -19.1337941354
 H       -16.9539829940       -0.6059415475      -20.5278506950
 H       -13.4214912400       -2.6237667607      -20.3159121676
 H       -14.0784264899       -3.5348265051      -18.9212265126
 H       -12.3628315749       -2.7346489943      -18.7566904377
 H       -15.5575525444       -0.5788992835      -17.3078684256
 H       -14.2029541632       -1.4419452236      -16.4386889940
 H       -15.5584848456       -2.4007404707      -17.2811764771
 H       -10.7401837079        3.4156364642      -17.8833330657
 H       -11.4202675216        3.5023190957      -19.4000860594
 H       -10.3675683545        4.7987476921      -19.1097506214
 H        -8.4669374916        2.7673974350      -21.6619996186
 H        -9.2212566708        4.3448663874      -21.2986417101
 H       -10.2387185414        3.0128679057      -21.7370084760
 H        -6.0535188455       -0.9628356782      -16.4875032723
 H        -4.3118979123       -1.2886340083      -16.6763822593
 H        -5.2520147326       -0.7052956233      -18.0668456350
 H        -4.1534657950        0.8792408261      -14.5339082304
 H        -5.8749326851        0.5539289867      -14.6878513237
 H        -5.4429324152        2.1607454944      -14.9696684584
 H        -1.7089317213        5.4990814273      -20.6197629092
 H        -2.9856761291        4.4246189629      -20.1143483434
 H        -1.2649805228        3.7928628720      -20.2333318009
 H         0.5949043939        5.6971774750      -19.1099028429
 H         0.4837148778        4.1120293131      -18.2899596648
 H         0.3492661036        5.7031413228      -17.3232323183
 H        -7.1836291780        8.4435192469      -16.4350004898
 H        -6.7685003101        7.5758062333      -17.9582851413
 H        -7.1575980088        9.2804681510      -17.7001816262
 H        -3.7434553840       10.4281910295      -16.5509595145
 H        -5.5923081719       10.5105366227      -15.9724132609
 H        -5.1529153371       10.7918101699      -17.5892230974
 H         0.6048284224        6.4777046355      -11.1654738489
 H        -0.9931508133        7.2001757732      -10.7403869422
 H        -0.2040197080        7.8602270542      -11.9092336371
 H        -0.4546661000        5.1593367828      -14.5064511283
 H         0.7690261584        5.9771840426      -13.5565585616
 H        -0.4318994239        6.9216216907      -14.5381245915
 H        -5.1405931051        2.0115215033       -9.9040282150
 H        -5.3112451205        3.7917684153       -9.2541864024
 H        -6.1436664742        2.4223802527       -8.4939021707
 H        -4.3455415428        3.8372753067       -6.7717056123
 H        -3.3827290143        2.6819252428       -6.1186448006
 H        -5.0148321704        2.3333964149       -6.3459707952
 H         0.2481254467       -4.5267339545       -8.3795934940
 H         0.6696485236       -3.3143123299       -7.1009738877
 H         0.4809455871       -2.9277782389       -8.7255764972
 H        -2.0351158101       -4.9440851160       -9.4367718649
 H        -2.1783322524       -3.0619366196       -9.8262228290
 H        -3.3250040461       -3.7628526501       -8.7511633575
 H        -3.3046485981       -9.9026939612       -4.0163164638
 H        -2.4421990238       -9.3910834474       -5.5109959734
 H        -3.6312636636       -8.3491983289       -4.7608222092
 H        -3.2360697250       -6.9560639546       -2.9845392144
 H        -1.7482087578       -7.1609652260       -2.0427529385
 H        -3.0593999362       -8.2948877680       -1.8095646273
 H         3.4030045544      -12.2212080333       -2.1317754215
 H         3.3104890371      -13.2223432820       -3.5662784958
 H         3.4843333399      -13.9806033931       -1.8805623763
 H         0.9146311539      -15.0115362187       -3.2391485917
 H        -0.0998503918      -14.6073825281       -1.9494152181
 H         1.5240985877      -15.2275045552       -1.4944580166
 H         0.7104191300      -12.6570633941        4.6877444078
 H         1.3637973261      -11.2742357463        5.4860548257
 H         1.9700116088      -11.7204258484        3.9587479004
 H        -1.6627061681      -12.0299463662        4.1952967612
 H        -2.0208965087      -10.3439392409        3.9109354500
 H        -1.3167160119      -10.8418184771        5.3335084635
 H         3.6414894644       -4.4372876841        1.3889930455
 H         3.7113425330       -5.8555542702        2.4051861781
 H         2.4632436545       -4.7161427486        2.6460561209
 H         0.6189463328       -4.5069507213        1.0711081110
 H         0.3007183885       -5.5013189778       -0.2807786731
 H         1.4593785506       -4.3617704194       -0.4344663799
 Na        1.5566949170       -9.3894279306       -0.5073560487
 Na       -5.9196205395        5.2395774748      -17.2845834298
