232

 C         4.3208733652       -5.5807424686       -0.8344736600
 C         3.2297033131       -6.5369473436       -0.4685309954
 O         2.9943273478       -7.5627145583       -1.0741583032
 C         2.2189677991       -6.0128212148        0.6916982598
 C         1.7052157230       -7.2766179248        1.6321694878
 O         2.1172090671       -8.3810512268        1.4225758923
 C         0.7119143120       -6.9778659654        2.8075798939
 C        -0.2045350969       -8.1085215752        3.1901125209
 C         0.6515040293       -9.2052042654        3.8326161090
 O         1.6242274382       -8.9459686013        4.5034653703
 C         0.0927826965      -10.7340413877        3.6761005770
 C        -0.0371525161      -11.2530618694        2.1571430649
 O        -0.2869304653      -10.4354950795        1.2671783451
 C         0.1017643425      -12.7174237730        1.8821320534
 C         0.3046255640      -13.1753024243        0.3775583263
 C         1.3246873884      -12.5105871171       -0.6582182447
 O         1.9913739084      -11.5604089356       -0.4013525491
 C         1.4834552039      -13.1660769135       -2.0292792946
 C         0.6675410938      -12.3808850719       -3.1578095906
 O        -0.4238525526      -12.7636149899       -3.4869674089
 C         1.2769440622      -11.0446489822       -3.7800205817
 C         0.1551882525      -10.1460012050       -4.2294908555
 C        -0.4949091979       -9.3014593873       -3.1151258122
 O        -0.1186109174       -9.2557962619       -1.9761324447
 C        -1.6081080146       -8.3203889784       -3.5995416398
 C        -0.8656723279       -7.1552677140       -4.2349003342
 O         0.0620476949       -6.6610963329       -3.6642295511
 C        -1.6307807168       -6.3677847310       -5.3153262080
 C        -1.1474349195       -4.9472570523       -5.5055571941
 C        -2.1218832699       -4.2709051710       -6.6074608485
 O        -3.3694097332       -4.2503782886       -6.5280720617
 C        -1.5161849718       -3.5168790308       -7.8014942802
 C        -1.7440515885       -1.9783481758       -7.3230184810
 O        -0.8110493098       -1.4171245580       -6.7901415916
 C        -3.0225995737       -1.3197192082       -7.7092986716
 C        -3.3364503619        0.0170854816       -7.0619991742
 C        -3.6312649689        0.8941642739       -8.2576162585
 O        -3.5180099330        0.4839073867       -9.4035126678
 C        -3.9959331553        2.4814699201       -8.1057114796
 C        -2.6777775976        3.0977115048       -8.8384553401
 O        -1.7073909958        3.3634255031       -8.1250176242
 C        -2.5340784053        3.1064432507      -10.4137674546
 C        -2.0508260886        4.5047283590      -10.7072893240
 C        -1.6586744741        4.6657755756      -12.1895885102
 O        -1.5866798501        3.7384197280      -12.9607266008
 C        -1.1602157160        6.1064193293      -12.5896885977
 C        -2.4281149012        6.9369513672      -12.9128214801
 O        -2.9036983452        7.4854223212      -11.9612911496
 C        -3.1550315155        6.9093014702      -14.2627365659
 C        -3.8480099987        8.2791146094      -14.6179771233
 C        -4.9062755678        7.7978751030      -15.7289490121
 O        -5.4600935373        6.7446407491      -15.5481214609
 C        -5.2584972832        8.6596836300      -17.0813587174
 C        -4.4331666243        7.8918521508      -18.1393270938
 O        -4.6879210220        6.7164532859      -18.4485945233
 C        -3.1966526395        8.5133837474      -18.9336166327
 C        -2.3377717449        7.4301905338      -19.5297377612
 C        -1.8541149317        6.6632904076      -18.3032199449
 O        -1.7834165114        7.1870420981      -17.2041718625
 C        -1.4412515386        5.1705603037      -18.4982107754
 C        -2.2969764147        4.3142464649      -17.5560803705
 O        -3.4408227294        4.6525408840      -17.2689765616
 C        -1.6173983574        3.0156407773      -17.0826101506
 C        -2.6501374841        2.2757699616      -16.2168550552
 C        -3.2614716461        1.0326832247      -16.8517544152
 O        -2.7318696591        0.3101489696      -17.7237976489
 C        -4.8851318999        0.7323890429      -16.5359493478
 C        -5.6181058541        1.8558117689      -17.4460433545
 O        -5.7198261454        2.9958896700      -16.9135220336
 C        -6.1136107746        1.4535177867      -18.8703768894
 C        -6.7480180722        2.6425978517      -19.5398606097
 C        -8.0125005195        3.1866364747      -18.9179081466
 O        -8.0282912982        4.0588709843      -18.0389249147
 C        -9.3824512405        2.8825469395      -19.5248938923
 C        -9.6070914770        1.3275154923      -19.3696840720
 O        -8.7600702918        0.6373058188      -19.8169374281
 C       -10.7457930281        0.8479055891      -18.5722475843
 C       -11.7895326229        0.0601308561      -19.4491058826
 C       -12.9638506399       -0.2283672955      -18.5574413637
 O       -13.1980779703        0.5855346454      -17.6735278512
 C       -13.9990512186       -1.4150989253      -18.7622006718
 C       -15.0067073946       -0.7629720866      -19.8157685567
 O       -14.4634365175       -0.0768337706      -20.6238291122
 C       -16.5933216148       -0.7763830434      -19.7243377469
 C       -13.5151481548       -2.9059905051      -19.2267196171
 C       -14.6662726857       -1.6133530287      -17.3969782202
 C       -10.4448183467        3.8232742966      -18.8323241562
 C        -9.3404444573        3.2584837601      -21.0642742575
 C        -5.2143825325       -0.6814809742      -16.9315389291
 C        -5.1840220048        0.9539150770      -14.9925838697
 C        -1.7956853355        4.5168801737      -19.8585244899
 C         0.0581239655        5.2072869711      -18.1333849815
 C        -6.7601195584        8.4089559697      -17.3746388030
 C        -5.0143520991       10.1400383571      -16.8980967711
 C        -0.5043948002        6.8592135155      -11.4348143416
 C        -0.1665413617        5.9697344225      -13.7685586705
 C        -5.2691052170        2.6533384174       -8.9493047016
 C        -4.0497328600        2.9726271459       -6.6563480409
 C        -0.0135977839       -3.5642992741       -8.1715328185
 C        -2.2876593764       -4.1051923665       -9.1093903164
 C        -2.6576518591       -9.0869555623       -4.5563017438
 C        -2.3748237818       -7.6393552762       -2.3620599520
 C         2.9670487505      -13.1830452451       -2.4867317826
 C         0.8852160934      -14.6723489380       -2.1683471239
 C         0.9545829838      -11.5798856399        4.5479766650
 C        -1.3245122226      -10.8963401386        4.2941202612
 C         3.0597998073       -5.1190251020        1.5819201436
 C         1.0120627787       -5.2012964099        0.0901652894
 H         4.9314025620       -5.0653518597       -0.0472921953
 H         3.6880697224       -4.8076741173       -1.3940586083
 H         4.9566570972       -6.0652283028       -1.5831918700
 H         0.1490602439       -6.1851441125        2.4228307300
 H         1.2702690223       -6.5215519164        3.5317535323
 H        -0.8272317762       -8.4825611754        2.3248271182
 H        -0.8389611546       -7.8029931337        4.0074558171
 H        -0.9113807450      -13.0928165542        2.1101085028
 H         0.7216452217      -13.2598654066        2.4648542643
 H        -0.6907006928      -13.2663967795       -0.1050505736
 H         0.6333934637      -14.1686987677        0.4772066042
 H         1.9414546307      -11.2351749621       -4.6513005362
 H         1.9278710521      -10.6278629841       -2.9819465873
 H        -0.6012503103      -10.6793910459       -4.8082617425
 H         0.5197037684       -9.4682814343       -5.0035674094
 H        -2.6490439260       -6.3687962871       -4.9879988717
 H        -1.6569303984       -6.8534850797       -6.3311646059
 H        -0.1248737368       -4.8529375779       -5.8167732723
 H        -1.3162854665       -4.3388628040       -4.6465797325
 H        -3.7682522939       -2.1447297221       -7.5779970400
 H        -2.8929364497       -1.1075667630       -8.8628271981
 H        -2.5083486799        0.4187810045       -6.5533515137
 H        -4.1862518549       -0.0997560646       -6.4056858730
 H        -3.5095511274        2.8720678317      -10.8667836573
 H        -1.8680109073        2.3240797742      -10.5641156548
 H        -1.1294412486        4.6732428412      -10.0348239089
 H        -2.7582634185        5.2992428706      -10.5408721016
 H        -3.9528144054        6.1400393982      -14.0958820605
 H        -2.5176187249        6.7160357883      -15.1728514246
 H        -3.0589768804        8.9986829045      -14.7448452890
 H        -4.3918930083        8.7612818957      -13.7310678755
 H        -2.5565837772        9.1398659911      -18.2515985231
 H        -3.7396913331        9.1710965354      -19.6708104949
 H        -1.5222144747        7.8458744866      -20.2091453664
 H        -2.9937778051        6.7329079817      -20.1179275993
 H        -0.7596107299        3.0852766382      -16.4313050121
 H        -1.4325618268        2.5037497255      -18.0026474030
 H        -3.4351715679        3.0145791629      -16.0340343235
 H        -2.2224397163        2.0748919562      -15.2797976965
 H        -6.7433427070        0.6332429053      -18.7597918152
 H        -5.2177913584        1.0816540147      -19.4278793658
 H        -6.9618286273        2.3523520765      -20.6041458673
 H        -6.0846328489        3.5487215072      -19.6351683152
 H       -11.2741437693        1.5939174311      -18.0376434203
 H       -10.3789406125        0.0919715401      -17.8223566817
 H       -11.3162645222       -0.8636472847      -19.9295122367
 H       -12.0564222036        0.7862739006      -20.1686303944
 H       -17.1487265386       -0.1477242783      -18.9390602940
 H       -17.0035182695       -1.7355719510      -19.4440929940
 H       -16.9616034703       -0.3914752157      -20.6756546223
 H       -13.3718354444       -2.9460185973      -20.3402052494
 H       -14.3627503438       -3.6491051335      -18.9948777112
 H       -12.6108698070       -3.0599532432      -18.6847689218
 H       -15.0264869361       -0.6202490199      -16.9996271556
 H       -14.0442415339       -2.1194599392      -16.7245971685
 H       -15.5261922405       -2.2121327134      -17.6381765503
 H       -10.6250508596        3.5783915153      -17.8300928507
 H       -11.4193405801        3.6937654621      -19.3002506031
 H       -10.1924000002        4.8910081676      -18.9682148047
 H        -8.4691842364        3.1459766303      -21.6607655831
 H        -9.5968419202        4.3326448880      -21.0270566097
 H       -10.2023526244        2.8656432412      -21.6911237549
 H        -5.9441165728       -1.1770309252      -16.3030403957
 H        -4.2777965574       -1.2741551069      -16.8591713996
 H        -5.5541257663       -0.8172703278      -17.9783367022
 H        -4.2310875914        0.6059919611      -14.4558398262
 H        -5.9464015803        0.2692498764      -14.6206943185
 H        -5.6119754516        1.9218884873      -14.7719462733
 H        -1.4653593097        5.1174133174      -20.7879410810
 H        -2.9642852816        4.6404713059      -19.9660729098
 H        -1.5429144254        3.4190739396      -19.8709655096
 H         0.6134050010        6.0194728149      -18.5879186396
 H         0.5632866091        4.2414014865      -18.3384455815
 H         0.0943232702        5.3690908441      -17.0931853486
 H        -7.3751408123        8.6147824417      -16.4688102528
 H        -6.8924144081        7.5149508896      -17.9001947231
 H        -7.1971465715        9.2318904862      -17.9122584662
 H        -3.9578511884       10.2247870354      -16.5112839338
 H        -5.8092052292       10.5767064895      -16.3570728288
 H        -4.9762136246       10.6419357582      -17.8769140629
 H         0.3962373182        6.3715990283      -11.1307610830
 H        -1.1725369148        7.0379184901      -10.5896602071
 H        -0.3886645022        7.9217499863      -11.7042368974
 H        -0.5970378274        5.3429218729      -14.5772762857
 H         0.7735508468        5.4806618998      -13.4961495423
 H        -0.0453757225        6.9440160204      -14.1836317751
 H        -5.1818356136        1.8807498782       -9.7884083095
 H        -5.2741238563        3.7626671914       -9.2282450335
 H        -6.1733756699        2.5229966277       -8.3554550388
 H        -4.0795997132        4.0370159507       -6.5831443576
 H        -3.1710124962        2.7286664966       -6.0105975733
 H        -4.9123687396        2.5912000241       -6.1396081239
 H         0.1016548221       -4.5350084725       -8.7460457438
 H         0.6640681459       -3.4029575274       -7.2572606229
 H         0.3410847571       -2.7489118117       -8.8028918909
 H        -1.8268555694       -5.0937648486       -9.1319239318
 H        -2.0603215244       -3.5478354424       -9.9423565805
 H        -3.3640088352       -4.0518950293       -8.9910986482
 H        -2.8860987532      -10.0781084804       -4.1645149845
 H        -2.2077415476       -9.2358878219       -5.5575071242
 H        -3.6644662938       -8.5385022669       -4.7271507306
 H        -2.8649552198       -6.7414770645       -2.8239775178
 H        -1.6818008071       -7.3805065127       -1.5809199718
 H        -3.1156697786       -8.3542020378       -2.0737274984
 H         3.2540558254      -12.1737140644       -2.4885233524
 H         3.1385472927      -13.5241258464       -3.4562130609
 H         3.5399559464      -13.7487173855       -1.6761136146
 H         0.7802463265      -14.7977293034       -3.2360030887
 H        -0.0643133386      -14.7867035546       -1.7324703621
 H         1.5885380360      -15.3359018948       -1.7231809282
 H         0.6560291098      -12.5728548819        4.3999510708
 H         0.8644636298      -11.3737912131        5.6160562554
 H         1.9432565395      -11.4536078733        4.1662995587
 H        -1.6734792878      -11.9142379656        4.2004969451
 H        -1.9829481984      -10.2527368553        3.7977244183
 H        -1.4652585181      -10.6676553944        5.3201189894
 H         3.4771849520       -4.3327791834        1.0025908220
 H         3.8821621673       -5.5959177764        2.0534643169
 H         2.4855349591       -4.6671703884        2.3771544529
 H         0.4495499838       -4.5405237641        0.7689148160
 H         0.3021623358       -5.8301616285       -0.4389204266
 H         1.2802881947       -4.5370630183       -0.7331179780
 Na        1.5199674465       -9.4232536014       -0.5007775293
 Na       -5.9333553901        5.1657620820      -17.3431699388
