232

 C         4.1144412490       -5.6945299767       -1.4005084101
 C         3.1472277317       -6.7777239919       -0.7354540841
 O         3.1739642629       -7.9495398516       -1.0315300722
 C         2.1046522369       -6.2169116798        0.3203467389
 C         1.8744823286       -7.2191387649        1.5081517639
 O         2.3163009891       -8.3530252953        1.5190186601
 C         1.0638091325       -6.8124707313        2.7768838024
 C        -0.0040675427       -7.8179006899        3.2299445629
 C         0.7281863973       -9.1157306755        3.6908598071
 O         1.8815266736       -9.1015215221        4.0669825533
 C        -0.0533225672      -10.5047921536        3.5275908180
 C         0.1589390801      -11.0288338621        2.0232073549
 O        -0.2581550027      -10.4108004635        1.0612866430
 C         0.7628913324      -12.3401639710        1.7636001764
 C         0.2000413858      -12.9146813358        0.3876326811
 C         1.3363432348      -12.6955483565       -0.6309197418
 O         2.0204329237      -11.7213031296       -0.4758736315
 C         1.4620769391      -13.4571758765       -1.9194537124
 C         0.7081186500      -12.4188398428       -2.9195760506
 O        -0.4747751146      -12.6065839836       -3.1239047952
 C         1.5129746956      -11.3144176349       -3.6730043603
 C         0.6703889304      -10.2066156927       -4.2652552078
 C        -0.2021454874       -9.5414617653       -3.2003975291
 O        -0.0768135015       -9.8103271534       -2.0287733635
 C        -1.3852487401       -8.4597897131       -3.5042649061
 C        -0.6827793768       -7.1717485922       -4.1235124231
 O         0.5093158558       -6.9082675253       -4.0993237814
 C        -1.6776265570       -6.2317656285       -4.8792426838
 C        -1.0758503774       -5.0230345066       -5.5567295156
 C        -2.1638083104       -4.3994133486       -6.5455985829
 O        -3.3436645131       -4.6428852508       -6.2410651545
 C        -1.6968209460       -3.4434319005       -7.8961744228
 C        -1.7412462922       -1.9938658692       -7.2757390007
 O        -0.8320079961       -1.4839653763       -6.6950758482
 C        -3.0883289556       -1.2421324264       -7.4138580380
 C        -2.9921909812        0.2481199889       -7.1669469855
 C        -3.6219529924        1.1118450822       -8.1991404644
 O        -4.0521235374        0.6220105960       -9.2268284298
 C        -3.6799381456        2.6353809118       -8.0065433406
 C        -2.4545621544        3.3405769586       -8.7694085771
 O        -1.5988267211        3.8717469405       -8.0859904984
 C        -2.3948558463        3.3227513859      -10.2877645574
 C        -1.9612633353        4.7074969800      -10.7758756206
 C        -1.6876177615        4.9560463459      -12.2013886863
 O        -2.2696807555        4.2404216132      -12.9881382422
 C        -1.0680315013        6.3249960455      -12.6438114204
 C        -2.3165633059        7.2685255961      -13.1157318866
 O        -2.6014007228        8.2450448784      -12.4968975724
 C        -3.1088176589        6.8810771759      -14.3818050582
 C        -4.1076779023        8.0189303503      -14.8626254909
 C        -5.1772422813        7.4590294020      -15.8700349272
 O        -5.7948118473        6.4947425663      -15.5265834801
 C        -5.5823125834        8.3370637916      -17.1055311845
 C        -4.7517846788        7.6880086147      -18.3545309432
 O        -5.2314407306        6.6977062224      -18.8403088494
 C        -3.5347192108        8.3223775988      -18.9371277383
 C        -2.4748515621        7.2541005935      -19.3618444081
 C        -1.8135845145        6.6551374347      -18.1621134340
 O        -1.5915221396        7.2094479827      -17.0896948351
 C        -1.2601257073        5.1013220521      -18.3324274862
 C        -2.3159180849        4.2905713294      -17.4736497857
 O        -3.4159311498        4.7786256647      -17.2307424825
 C        -1.7475051454        3.0814824530      -16.7749837634
 C        -2.6993726201        2.2263054614      -15.9619977543
 C        -3.2153125114        0.9069300696      -16.5558614228
 O        -2.4645689603        0.1826379006      -17.1928740689
 C        -4.8477899256        0.5983335778      -16.4224023728
 C        -5.5579029259        1.6772598369      -17.1999301299
 O        -5.3955526938        2.8463299327      -16.7956753652
 C        -6.3608984843        1.3378816926      -18.4867641867
 C        -6.8323782023        2.5157009317      -19.2859837921
 C        -8.0671399693        3.2545950162      -18.8154931768
 O        -7.9467437403        4.2688665716      -18.1441756421
 C        -9.4513657577        2.9060642855      -19.4808528540
 C        -9.5684178802        1.3167523413      -19.2160430592
 O        -8.9093974458        0.6042115585      -19.8892986290
 C       -10.5888175448        0.8119665631      -18.2317980057
 C       -11.6141102887       -0.0210050668      -19.1559618827
 C       -13.1280254762       -0.1181557217      -18.5257369017
 O       -13.3699981996        0.5250313551      -17.5466036577
 C       -14.1709348615       -1.1459682272      -19.0317369525
 C       -15.2994669961       -0.4451163140      -19.9804179960
 O       -15.0188395768        0.5094127046      -20.6967382873
 C       -16.7247069056       -0.9734640770      -19.9648268898
 C       -13.5472468500       -2.1438844696      -19.9797084923
 C       -14.7805793888       -1.9746860174      -17.8538162652
 C       -10.4506236365        3.8305981989      -18.7334689104
 C        -9.4631927203        3.1902547921      -20.9596762330
 C        -5.0170782487       -0.8743587848      -17.0065141656
 C        -5.4692335019        0.4952741086      -14.9669860572
 C        -1.2793535677        4.7490724201      -19.8040749911
 C         0.1003115448        5.0899753588      -17.6751344214
 C        -7.1659405649        8.1565202239      -17.4465265857
 C        -5.2727991225        9.8841968023      -16.7552508184
 C        -0.4082151174        7.0040351041      -11.4509974060
 C        -0.1319199712        6.1045950284      -13.8541302371
 C        -4.9143675199        3.3733480003       -8.5802917961
 C        -3.6324013039        2.8561262362       -6.4593227374
 C        -0.2230710401       -3.6339052701       -8.4423515547
 C        -2.5658378888       -3.7250193171       -9.0677442697
 C        -2.5022239415       -9.1210911427       -4.4189647868
 C        -1.9216774040       -8.0091926426       -2.1335406334
 C         2.9908464587      -13.4871101832       -2.2518238510
 C         0.8729888174      -14.8526074632       -2.0040368889
 C         0.5522106180      -11.5265005619        4.5876672901
 C        -1.5601280030      -10.3326206497        3.7448155228
 C         2.6295051717       -4.8522033529        0.8076002698
 C         0.7009910800       -5.9747940647       -0.3987049342
 H         4.7698846297       -5.1587454848       -0.7090153783
 H         3.3558130620       -4.9452192781       -1.8197514614
 H         4.6503236433       -6.0220171375       -2.2364733465
 H         0.6575133387       -5.8624441419        2.5147186065
 H         1.7700941838       -6.5254042172        3.5360351486
 H        -0.7307959307       -8.0697900133        2.4402143033
 H        -0.4712867237       -7.3509079737        4.0569875771
 H         0.4832693117      -13.0238454794        2.5514599298
 H         1.7543834321      -12.2216076326        1.7171703266
 H        -0.7741839627      -12.3417921411        0.2257251119
 H         0.0132407697      -13.9740039317        0.5193251047
 H         1.9060189523      -11.9694224542       -4.5060022795
 H         2.3030256483      -10.9564044986       -2.9642172222
 H        -0.0820163958      -10.6542785614       -4.9879628524
 H         1.2143994005       -9.4689617761       -4.9041741253
 H        -2.4820100943       -5.9016372557       -4.2529605055
 H        -2.2792778214       -6.8914104663       -5.5637156182
 H        -0.1728877070       -5.2212387336       -6.1684153794
 H        -0.8030863794       -4.2138411442       -4.8385898942
 H        -3.6566091052       -1.6317833865       -6.6046076842
 H        -3.4887178423       -1.4163164109       -8.4639060745
 H        -1.9667560166        0.4731377822       -7.0247014671
 H        -3.3871658049        0.3452078469       -6.1895717014
 H        -3.3957353661        3.0140646727      -10.7008106569
 H        -1.7836988577        2.5833770015      -10.6036764471
 H        -1.1324389544        5.1707224931      -10.1502799707
 H        -2.7486979674        5.4742016683      -10.6839015586
 H        -3.7477017997        5.9599931318      -14.2185988295
 H        -2.3929980086        6.5976352663      -15.2081109971
 H        -3.6754318395        8.9090989213      -15.2607121039
 H        -4.6412585362        8.3640255354      -13.8866604765
 H        -3.1705167780        9.1011641618      -18.2928725095
 H        -3.8750351565        8.8099776440      -19.8950158210
 H        -1.7332610956        7.7093463772      -20.0370782066
 H        -3.0155141500        6.5466003483      -19.9915607276
 H        -0.9519633750        3.5253274303      -16.1543395388
 H        -1.2759961310        2.3970486573      -17.4192617620
 H        -3.5768459087        2.7753043521      -15.6767424065
 H        -2.2746520961        1.9195560540      -15.0494187185
 H        -7.1991132610        0.7667340721      -18.0488139315
 H        -5.7701683739        0.5720314455      -19.0337782572
 H        -7.0818134068        2.2145098096      -20.3527739701
 H        -6.0399893037        3.2946547662      -19.1828828452
 H       -11.1401959304        1.5313833249      -17.6670958007
 H       -10.3003912268        0.0286005975      -17.4967019229
 H       -11.1458206063       -1.0867023502      -19.1895295298
 H       -11.6473487681        0.4036368050      -20.1257872553
 H       -17.2392646721       -0.7985656884      -19.0389741177
 H       -16.8418225616       -2.0243105901      -20.0736052494
 H       -17.3565462999       -0.4749573997      -20.7361752670
 H       -13.2914342305       -1.5893308378      -20.9175535514
 H       -14.2792828722       -2.9995811721      -20.2915106554
 H       -12.6605482303       -2.6036439095      -19.5275773214
 H       -15.3954262981       -1.4175368442      -17.0892584610
 H       -13.9627575611       -2.5873556708      -17.3768877528
 H       -15.4345555730       -2.7530687514      -18.3515890621
 H       -10.3364122904        3.5885176980      -17.7437555978
 H       -11.4535373361        3.5978493324      -19.0455197610
 H       -10.3703013651        4.9175985739      -18.6790795568
 H        -8.9627318812        2.4006654703      -21.5085778383
 H        -8.9255164258        4.1683684906      -21.1389933196
 H       -10.5081007576        3.2947758699      -21.3679931863
 H        -5.9299524143       -0.9606675912      -17.6065536031
 H        -4.9491498664       -1.6275338824      -16.2195327496
 H        -4.1766189788       -1.1715022695      -17.6732894699
 H        -5.3371742681       -0.5196958657      -14.5366959968
 H        -6.5409971664        0.5034834856      -15.0304084127
 H        -5.0892036948        1.3037875236      -14.3827072706
 H        -0.9568916455        5.6732882342      -20.3373805502
 H        -2.2589275384        4.4883027233      -20.1821217513
 H        -0.5109539649        3.9702026049      -20.1957858732
 H         0.8723388962        5.6343064019      -18.3477923778
 H         0.4392748996        4.0369700336      -17.4715031540
 H         0.0372231842        5.6580570696      -16.7412027621
 H        -7.6352195392        9.0791534383      -17.0509378573
 H        -7.5089005386        7.3091298716      -16.9317597462
 H        -7.4944095553        7.9856626872      -18.4529825600
 H        -4.2365036180       10.2108113874      -16.7733000554
 H        -5.5164854158       10.0437498995      -15.7036269620
 H        -5.8118997691       10.6069104211      -17.4469667418
 H         0.4303132182        6.4224275534      -11.1834528022
 H        -1.0418026165        7.1831509674      -10.5816454219
 H         0.0050011158        7.9790903853      -11.8261858621
 H        -0.5771564406        5.3165666684      -14.4806840288
 H         0.8018629386        5.5809417315      -13.6039410673
 H         0.1003869765        7.0153387653      -14.3579433407
 H        -4.8540377507        3.3381664298       -9.6932611561
 H        -4.7927631646        4.3739761921       -8.1929095000
 H        -5.8082126691        2.9199308344       -8.2123597965
 H        -3.7777000300        3.7768621428       -6.0456427313
 H        -2.6458822588        2.5141077311       -6.0866915055
 H        -4.2940925256        2.1996545509       -5.9946729943
 H        -0.1037827704       -4.6641486574       -8.7265811545
 H         0.4740324541       -3.4393272577       -7.6628004703
 H        -0.1303615792       -3.0257792270       -9.2870893626
 H        -2.1209127953       -4.5027440389       -9.7632379607
 H        -2.5323799870       -2.8121518605       -9.6780520672
 H        -3.6531609468       -3.8836974313       -8.7226796810
 H        -2.8531133201      -10.0799621414       -4.0101348260
 H        -2.0951629504       -9.4606491065       -5.3464023582
 H        -3.4370750056       -8.5660479381       -4.5586470364
 H        -2.8315748034       -7.4562571920       -2.3363887066
 H        -1.2476709616       -7.3860720240       -1.6323536471
 H        -2.1179617756       -8.9327874943       -1.6428181961
 H         3.5335511444      -12.5988412509       -1.8996784178
 H         3.1303402585      -13.5940953807       -3.3371129898
 H         3.3076483743      -14.4370320978       -1.8014797909
 H         1.4404597120      -15.3361627579       -2.8269652438
 H        -0.2063751074      -14.7578724569       -2.2061756812
 H         1.0743201800      -15.3534452611       -1.1052174342
 H        -0.2304513772      -12.1539015075        4.8380155306
 H         0.6765416950      -10.8989713433        5.4536492397
 H         1.4092710195      -12.1153142704        4.3629267069
 H        -2.1216407102      -11.2621703513        3.8145277433
 H        -2.0315540197       -9.6917060285        3.0330417321
 H        -1.7389355060       -9.8555433109        4.7007943960
 H         2.5750422232       -4.0820158521        0.0375051492
 H         3.6827136946       -4.8925415930        1.0931860271
 H         2.0011933101       -4.5237712470        1.6575768570
 H        -0.1492063906       -5.8406781960        0.2493799502
 H         0.4181203778       -6.8033739287       -1.0259752479
 H         0.6655961666       -5.0695223379       -0.9303878328
 Na        1.5958978228       -9.4438669849       -0.5029616595
 Na       -5.8887429417        4.9954623248      -17.1075736936
