232

 C         4.0604433653       -5.8454592309       -1.4104132199
 C         3.0796367933       -6.7890468271       -0.7993117975
 O         3.2498329518       -7.9797844476       -1.0599684749
 C         2.0557512803       -6.2204140066        0.2408806947
 C         1.9325795418       -7.1899528590        1.4815450785
 O         2.5233930300       -8.2733413533        1.4635375440
 C         1.1086749633       -6.6513826795        2.7216238667
 C         0.1186223860       -7.7483412363        3.2456090283
 C         0.7719364723       -9.1266330403        3.5708477018
 O         1.8839247986       -9.1852001881        4.0476465653
 C        -0.1212458984      -10.4078775378        3.5062608168
 C         0.1219652691      -10.9613509728        2.0663997855
 O        -0.1894188005      -10.1261201741        1.2433011434
 C         0.6927873762      -12.4238033192        1.8829295658
 C         0.3882913159      -12.9636960415        0.4096595013
 C         1.4390689867      -12.6686093503       -0.6457426028
 O         2.2252553246      -11.7097442019       -0.5371363138
 C         1.5146859477      -13.5372406697       -1.9810468009
 C         0.7433304854      -12.5166342522       -2.9949733062
 O        -0.4580474433      -12.4926664950       -3.0623708656
 C         1.5523091692      -11.4002289861       -3.6967180579
 C         0.6815296255      -10.2906732275       -4.2505703301
 C        -0.2189694306       -9.6360874041       -3.2294242690
 O        -0.0764565379       -9.8830182042       -2.0119578332
 C        -1.3138757363       -8.5338825188       -3.5595838755
 C        -0.7071818718       -7.2922261342       -4.2891167208
 O         0.4927850899       -7.0956278057       -4.0462949864
 C        -1.6885488165       -6.1873527257       -4.7444965634
 C        -1.1395335124       -5.0895794312       -5.5969039073
 C        -2.1190920169       -4.4433798552       -6.5720458206
 O        -3.3235040792       -4.5677016221       -6.4882370568
 C        -1.7348947583       -3.4937219971       -7.7780916430
 C        -1.7189914961       -1.9884997367       -7.2204296491
 O        -0.7669142352       -1.4573299938       -6.6955839775
 C        -3.0268312833       -1.2172357522       -7.4634877992
 C        -2.9565313663        0.2940897542       -7.1484416850
 C        -3.6359843019        1.0844809738       -8.2732748659
 O        -4.2924771845        0.5715227832       -9.1695688199
 C        -3.5874032403        2.6723676589       -7.9871260476
 C        -2.3737918089        3.4001226665       -8.6959826338
 O        -1.5384812254        3.9777525560       -8.0967450954
 C        -2.3256220547        3.4520479954      -10.2469585859
 C        -1.9352354132        4.9036705978      -10.6104383864
 C        -1.9477020973        5.1248189580      -12.2022469364
 O        -2.3490411268        4.3017657131      -13.0483838139
 C        -1.1901659879        6.3782783074      -12.7400074793
 C        -2.3360967773        7.2966664888      -13.2570906245
 O        -2.5024377550        8.3754595815      -12.6922690235
 C        -3.2331012940        6.8443422853      -14.3935725494
 C        -4.1286653550        7.9140007868      -14.8000853880
 C        -5.2117697498        7.4591703490      -15.7282801431
 O        -5.6636283360        6.3363772147      -15.5339340603
 C        -5.5794109221        8.2465194672      -16.9813454712
 C        -4.8804426027        7.7106316762      -18.2639148142
 O        -5.2772769652        6.7182143252      -18.8203600252
 C        -3.6008902695        8.3628376785      -18.8177530797
 C        -2.6905619620        7.1894407600      -19.2702973184
 C        -1.7968896103        6.6309803614      -18.1632175372
 O        -1.5996682683        7.2851445028      -17.1626618893
 C        -1.1992298805        5.1908966557      -18.2104534492
 C        -2.2213276532        4.3409807732      -17.3118341536
 O        -3.3798197388        4.6738047939      -17.3093671169
 C        -1.7297494431        2.9803612238      -16.7655906474
 C        -2.7719060127        2.2791528833      -15.7981809208
 C        -3.2405707409        0.9298847933      -16.4998118233
 O        -2.4385110581        0.2553496697      -17.0153445330
 C        -4.7751867227        0.5128723085      -16.4659315302
 C        -5.5948956036        1.6394606403      -17.1427647274
 O        -5.5872745905        2.7280372235      -16.6602714256
 C        -6.3990423837        1.2954877763      -18.4289360524
 C        -6.8078086869        2.5000027912      -19.3403330006
 C        -8.0086844234        3.4051880676      -18.8316068596
 O        -7.8769894893        4.3850495466      -18.1113779430
 C        -9.3683599948        2.9196115706      -19.3646991072
 C        -9.7049132686        1.3646471989      -19.1921252711
 O        -9.0458630137        0.5950632737      -19.9266125029
 C       -10.6006081240        0.7135790257      -18.1786935011
 C       -11.6935280121       -0.1284821364      -18.9287741660
 C       -13.1209515321       -0.1827303892      -18.3495936236
 O       -13.4083300874        0.4766981861      -17.3950462205
 C       -14.1932081801       -1.1138815205      -19.2078704511
 C       -15.4495301178       -0.2845381673      -19.9705650743
 O       -15.2052654941        0.6246701618      -20.7829857080
 C       -16.7944076468       -0.9882348799      -20.0039996829
 C       -13.5306483100       -2.0854952334      -20.2284435746
 C       -14.7509032864       -1.9614615985      -18.0851270633
 C       -10.4892045916        3.7885314761      -18.7507387573
 C        -9.3353029087        3.2473360186      -20.9337916194
 C        -4.9671088741       -0.9211308200      -17.1011720045
 C        -5.2947809160        0.5361319538      -15.0051625222
 C        -1.2239553506        4.5299740739      -19.6345357754
 C         0.2534919397        5.1547285868      -17.6270455117
 C        -7.1052280892        8.0564780176      -17.3703351676
 C        -5.2767184770        9.7465476745      -16.8713732442
 C        -0.4501457323        7.2687675336      -11.6597914834
 C        -0.1453384196        6.0242262481      -13.8451239701
 C        -4.9264097386        3.3668496012       -8.4546960657
 C        -3.4412222531        3.0114954091       -6.4719015874
 C        -0.2751679163       -3.5838213414       -8.4211555404
 C        -2.8126631181       -3.7826369784       -8.9056215270
 C        -2.4043059712       -9.1493729959       -4.3984616652
 C        -1.8942110179       -7.9577193912       -2.2627835997
 C         3.0717012694      -13.6698706366       -2.3007908926
 C         0.7712315977      -14.8623924535       -2.0763190987
 C         0.4466781506      -11.3692443262        4.5959506402
 C        -1.6172053810      -10.2100372689        3.5615899842
 C         2.4687722173       -4.7747720572        0.6335209946
 C         0.6542772440       -6.0955957891       -0.3837135749
 H         4.8901300569       -5.4924597299       -0.7736198453
 H         3.5779149611       -4.9646110650       -1.8893738050
 H         4.4870668594       -6.4413495904       -2.2752450155
 H         0.6625999534       -5.7458908190        2.4715493801
 H         1.8748335298       -6.3881731484        3.3640548385
 H        -0.7463225404       -7.8552988972        2.6170280556
 H        -0.1756328598       -7.4503327558        4.3030312838
 H         0.2449486523      -13.0584929859        2.6182135489
 H         1.7825734073      -12.3651878476        2.0514355985
 H        -0.4946783090      -12.4226944668        0.1513502744
 H         0.1955260968      -14.0353759004        0.3879638600
 H         2.1710530593      -11.8892385109       -4.4885688794
 H         2.1294345795      -10.9922174680       -2.8613580861
 H         0.0599267996      -10.5789393229       -5.1205122021
 H         1.2930426285       -9.4886308019       -4.6352470226
 H        -2.2546982238       -5.7920204448       -3.8370885538
 H        -2.4778755972       -6.6949532042       -5.1836478029
 H        -0.3131564993       -5.4425744423       -6.2057501194
 H        -0.7153458990       -4.2848455718       -5.0545662085
 H        -3.7586038352       -1.7857746184       -6.8314555415
 H        -3.1809454447       -1.2543671809       -8.5982282492
 H        -1.9053725726        0.4749367357       -6.9492336941
 H        -3.3949473205        0.5072674872       -6.2194280084
 H        -3.2391688010        3.1300289640      -10.7710132246
 H        -1.5914916656        2.7426681614      -10.6607830350
 H        -0.9535092774        5.2139239508      -10.2848132373
 H        -2.5990684417        5.7015678707      -10.1639081267
 H        -3.8201958718        5.9488613503      -14.0445447019
 H        -2.6902195410        6.4832439840      -15.3143530754
 H        -3.6117278400        8.6655827129      -15.4339217698
 H        -4.5156876075        8.4871036631      -13.8961708535
 H        -3.0730626737        8.8418947618      -17.9921994816
 H        -3.7117380677        9.1407791583      -19.6698037365
 H        -2.0523365455        7.5775179943      -20.1138614541
 H        -3.3434284856        6.4313209568      -19.7982529289
 H        -0.7600149601        3.2283369177      -16.3016453304
 H        -1.4742987662        2.2261486649      -17.4839314021
 H        -3.6135304259        2.8601736117      -15.5801454029
 H        -2.3532663739        1.9931713659      -14.8282015776
 H        -7.2222104440        0.6109041150      -18.2179950215
 H        -5.7416611576        0.7231673844      -18.9338897749
 H        -7.2586393362        1.9970242983      -20.2264360245
 H        -5.9236362471        3.1432078969      -19.5446288861
 H       -11.1756380832        1.3892243689      -17.4497759709
 H       -10.0135560576        0.0305720166      -17.5726024857
 H       -11.3146285813       -1.1124425549      -19.2119199954
 H       -11.8784800936        0.4404282979      -19.8498871182
 H       -17.4013530794       -0.8920895684      -19.1502508657
 H       -16.7144321561       -2.1300895895      -20.1361626287
 H       -17.4452214934       -0.6170902294      -20.8439459822
 H       -13.2404063418       -1.6067432356      -21.2093291450
 H       -14.1573292310       -2.9660999233      -20.4210627323
 H       -12.5943547637       -2.5160155593      -19.6749145152
 H       -15.5625973684       -1.4628921638      -17.6421380908
 H       -13.9894643069       -2.2480847569      -17.2862867953
 H       -15.1414210085       -2.9143822332      -18.4815896759
 H       -10.5126972355        3.7959483545      -17.6617120827
 H       -11.4005502445        3.5301315221      -19.1632556002
 H       -10.3616123115        4.8324875963      -18.8701296005
 H        -8.8287013327        2.3413152550      -21.3996117041
 H        -8.7990602005        4.1764688057      -21.2615938421
 H       -10.3266837536        3.2584472200      -21.3131328175
 H        -5.8646437882       -0.9917608735      -17.7744009652
 H        -4.8887496967       -1.7299940326      -16.3788517174
 H        -4.0891806955       -1.0974273590      -17.7451734438
 H        -4.9343029149       -0.2373663706      -14.3600847834
 H        -6.4006411384        0.3374727722      -14.9908311428
 H        -4.9769093699        1.5588263104      -14.7021557449
 H        -1.0828462715        5.3008151407      -20.4975946831
 H        -2.1287603233        3.8812196601      -19.8507486205
 H        -0.2730987789        3.8864618877      -19.7614759921
 H         0.8436646819        5.8470490576      -18.2609677184
 H         0.6177985528        4.1700135450      -17.8024842565
 H         0.3905276731        5.4571303966      -16.5642116184
 H        -7.6556497820        8.8599117554      -16.9593016044
 H        -7.5305812420        7.1037923497      -16.9927463575
 H        -7.2590488238        7.9929497963      -18.4559248018
 H        -4.3010296168       10.0647441463      -16.7602861279
 H        -5.6619355526        9.9437593778      -15.8439330662
 H        -5.7739779663       10.3759941281      -17.6252343901
 H         0.4973782424        6.7781242308      -11.3913273965
 H        -1.0196966941        7.4176070373      -10.7555169404
 H        -0.1151563098        8.2252581775      -12.1465100889
 H        -0.2667357437        5.0417586572      -14.2466595016
 H         0.8905902090        6.0128629681      -13.4977305126
 H        -0.1642563021        6.8050268447      -14.6078686434
 H        -5.0745514530        3.0848048295       -9.5194124628
 H        -4.8015634188        4.4477762722       -8.3043778212
 H        -5.7465739672        2.8967981789       -7.7779064282
 H        -3.3442257713        4.0500068682       -6.1715450943
 H        -2.5697883920        2.5053074264       -6.1341034535
 H        -4.2412851215        2.6100352066       -5.8637908819
 H        -0.0659271426       -4.4562549211       -9.0810090002
 H         0.4639756222       -3.6125405650       -7.6074567415
 H        -0.2784262681       -2.6546838681       -9.0809638214
 H        -2.3890931805       -4.5861449062       -9.4643456518
 H        -2.8659095612       -2.9480265496       -9.6450811669
 H        -3.7663661497       -4.0389396458       -8.4695893809
 H        -2.7698168440      -10.1515141738       -3.9809989676
 H        -2.1839283325       -9.4325286934       -5.4536165482
 H        -3.2933164699       -8.5610991026       -4.3604035080
 H        -2.8476820579       -7.5650851945       -2.4316617608
 H        -1.2590640292       -7.1065954141       -2.0627086292
 H        -1.8500456022       -8.7264292064       -1.4763115741
 H         3.7215780390      -12.9033184957       -1.8540694272
 H         3.2726004758      -13.8081919662       -3.3884094008
 H         3.2540266765      -14.5801670681       -1.8860382878
 H         1.1307341883      -15.3902911451       -2.9248363499
 H        -0.3012333353      -14.6422478300       -2.0710568521
 H         1.0471078902      -15.4166861090       -1.2188445817
 H        -0.2157875968      -12.2068519392        4.7254643662
 H         0.4010836255      -10.7515607095        5.4318684816
 H         1.4294448891      -11.7445149244        4.4434439797
 H        -2.1211787607      -11.1158074114        3.3856919852
 H        -2.0306882447       -9.5091793249        2.8700957236
 H        -1.9141348336       -9.8885197847        4.5240923003
 H         2.7003082913       -4.1706498215       -0.2136388722
 H         3.3495737515       -4.7526476909        1.2690979308
 H         1.6378208257       -4.3039274887        1.1068416048
 H        -0.0637483005       -5.8159979456        0.3698454171
 H         0.1879970381       -6.9869007857       -0.8063185444
 H         0.6015472947       -5.2401318030       -1.0389571611
 Na        1.5861084688       -9.6611773279       -0.4055093831
 Na       -5.8971744081        4.9713929478      -17.2143518513
