232

 C         4.1513575571       -6.1231626476       -1.4908497934
 C         2.9368003685       -7.0039031879       -1.1104120433
 O         2.7479065449       -8.0925590711       -1.6418522309
 C         1.9679603075       -6.4498743540       -0.0833467370
 C         2.2073244261       -7.2230548502        1.3718910345
 O         2.6595974644       -8.3312134147        1.3893809440
 C         1.6454376034       -6.6678882338        2.7487683932
 C         0.4060398252       -7.5455775591        3.0873633343
 C         0.8111739495       -8.9014010338        3.7412893183
 O         1.8709849989       -9.1734899986        4.2134842863
 C        -0.1969470004      -10.1527801139        3.4392255526
 C         0.1893651877      -10.7221200000        2.0119425062
 O         0.0324562122      -10.0668597755        0.9980734139
 C         0.8851412845      -12.1176260336        1.8268012937
 C         0.5682268070      -12.5887950282        0.3607624817
 C         1.7416597599      -12.6528581457       -0.6000531095
 O         2.8746667357      -12.1762640601       -0.3774123188
 C         1.4979998500      -13.4274446261       -1.9797611196
 C         0.7488102880      -12.4904032217       -2.8524497948
 O        -0.4184738474      -12.5807611083       -3.1260895231
 C         1.6966290205      -11.3859719626       -3.4458975782
 C         0.7860298572      -10.2841312313       -4.0076564153
 C        -0.0510044421       -9.5363313839       -3.0181510615
 O         0.2900570088       -9.5250364049       -1.8175264201
 C        -1.2712194370       -8.7222209025       -3.6694464801
 C        -0.6303980493       -7.5011392261       -4.3790108704
 O         0.4921176708       -7.5698353957       -4.8198191251
 C        -1.5139347286       -6.3081231162       -4.7106848179
 C        -1.1401868731       -5.4997596978       -5.9444675104
 C        -2.2660295060       -4.5615524309       -6.5839656304
 O        -3.4020496155       -4.5496627507       -6.2360405711
 C        -1.7851183864       -3.7376402039       -7.8401738160
 C        -1.8731328192       -2.1446951083       -7.2235066646
 O        -0.9194478614       -1.8188624068       -6.5350643559
 C        -2.8651479695       -1.0765287039       -7.6203340289
 C        -2.6380284239        0.4752546475       -7.1923613900
 C        -3.6025011999        1.4939214785       -7.9451110216
 O        -4.2997914936        1.0667797643       -8.8422608945
 C        -3.4905057688        3.0880465305       -7.6632228274
 C        -2.2674976315        3.5955951130       -8.5273881352
 O        -1.1415120779        3.6857971231       -8.0652466529
 C        -2.6437923617        4.1037379576       -9.9524645686
 C        -1.7290600456        5.2668745064      -10.4819458223
 C        -1.8599049155        5.4085681489      -12.0642267553
 O        -2.5652318338        4.6483893304      -12.7355679152
 C        -1.1756897048        6.6486311217      -12.7088676753
 C        -2.2401244315        7.7089014083      -13.3199299434
 O        -2.0481678811        8.9019061551      -13.2993606571
 C        -3.4245245228        7.0326417184      -14.1924997357
 C        -4.3804239605        7.9277641481      -14.9139590781
 C        -5.2849694364        7.2850367461      -15.8878831266
 O        -5.5716147445        6.0860466779      -15.7690836050
 C        -6.0007446642        8.1690117601      -17.1267917936
 C        -5.2146394956        7.5281214857      -18.3016732136
 O        -5.6163037418        6.5171666015      -18.9191981333
 C        -3.8050306076        8.1075756133      -18.6656317152
 C        -2.7982422553        6.9274104179      -19.0404863598
 C        -1.6563726246        6.6329394686      -18.0086459516
 O        -1.4006577861        7.4102507132      -17.1293441039
 C        -1.0459441023        5.1117792605      -18.0618514143
 C        -2.1785172752        4.2636728345      -17.2665815065
 O        -3.3487643185        4.5078586830      -17.4446534164
 C        -1.8590525132        3.2054552145      -16.1018212801
 C        -2.9749643973        2.3518078769      -15.5452116885
 C        -3.2621505035        1.0508891131      -16.3090312053
 O        -2.3737770740        0.4666107401      -16.9164632228
 C        -4.7123895084        0.3692907826      -16.2881991266
 C        -5.7088841452        1.5028972065      -16.9596790684
 O        -5.9853021418        2.3934740123      -16.2122034980
 C        -6.2591072027        1.2984705261      -18.4557549916
 C        -6.8643874881        2.3983529112      -19.3618298187
 C        -8.0312464657        3.1500501274      -18.7815153377
 O        -7.8389338368        4.0674511399      -17.9931789702
 C        -9.5171414148        2.9724157126      -19.3060140466
 C        -9.9151656747        1.4519979319      -19.2071909511
 O        -9.1732338673        0.5334692304      -19.6556547002
 C       -11.2136483989        1.1024419972      -18.4288182183
 C       -11.9213491062       -0.0744854102      -19.0839703717
 C       -13.3159848102       -0.2422721033      -18.6111012109
 O       -13.6578965898        0.2758191214      -17.5543657498
 C       -14.3465058139       -1.1353106397      -19.4835341892
 C       -15.4443156374       -0.1196838599      -19.9379618055
 O       -15.0447601978        0.9958116836      -20.1412180476
 C       -16.8783299413       -0.5514283527      -20.1951464413
 C       -13.7664487192       -1.7857425203      -20.7419466299
 C       -14.7079307913       -2.4450989304      -18.6557011378
 C       -10.4592945516        3.9349028768      -18.6638079518
 C        -9.5335717965        3.2183181072      -20.8505841576
 C        -4.8216874730       -0.9499737174      -17.0211391718
 C        -5.0908137899        0.3192280501      -14.7850772254
 C        -0.9020386826        4.5574338002      -19.6047180141
 C         0.3326139509        4.8789293769      -17.3977381881
 C        -7.4787438904        7.8235571333      -17.1786695462
 C        -5.7999341250        9.6193076932      -17.0079156267
 C        -0.1475308135        7.4371220522      -11.7907804099
 C        -0.3764134354        6.1969052598      -13.9016166537
 C        -4.7992398473        3.8087570916       -8.0899837766
 C        -3.2955318222        3.3914227112       -6.1726838828
 C        -0.3120607884       -3.8863876442       -8.2923380497
 C        -2.8778869008       -4.0363232798       -8.9564367786
 C        -2.0484430033       -9.3552293524       -4.8599267743
 C        -2.2455425458       -8.2780423357       -2.4154460428
 C         2.7700789725      -13.9711548371       -2.6459638069
 C         0.5801130471      -14.6849346344       -1.7387583383
 C         0.0043081170      -11.1910286937        4.6185653309
 C        -1.6361892329       -9.5166221385        3.3607758808
 C         2.1913607327       -4.9087829002        0.0744500674
 C         0.4677530535       -6.6161271865       -0.4089722125
 H         4.5786033259       -5.5179186157       -0.7043461649
 H         3.7495516529       -5.4377186202       -2.1874103764
 H         5.0622164803       -6.5858401884       -1.9822507179
 H         1.4550320138       -5.6473057628        2.6293032166
 H         2.3271603375       -6.8268653928        3.5027409457
 H        -0.2371829822       -7.8075990342        2.2803947067
 H        -0.1834142614       -6.9029641154        3.8025435159
 H         0.6686178268      -12.8360766469        2.5104880465
 H         1.9739555232      -12.0051700973        1.8548703539
 H        -0.1557843918      -11.9392598975       -0.1185867560
 H         0.1211789835      -13.5981673859        0.5385655320
 H         2.2846446902      -11.7929226016       -4.3258850244
 H         2.3155234440      -10.9776602713       -2.6137590586
 H         0.1497770426      -10.6368849526       -4.8770299421
 H         1.4885858752       -9.5363118902       -4.4433255332
 H        -1.5766296442       -5.6404640354       -3.7583768079
 H        -2.4872245992       -6.6669179905       -4.7844315427
 H        -0.8068979514       -6.2645368113       -6.6676352734
 H        -0.1770773513       -5.0406454011       -5.8413948816
 H        -3.8835766872       -1.1739565485       -7.1266404985
 H        -2.9378560884       -1.0739530071       -8.7448077068
 H        -1.6986691966        0.9181069434       -7.3482886461
 H        -2.7355920120        0.5698294803       -6.1765925074
 H        -3.6389160477        4.3928448349       -9.9832781379
 H        -2.6410634159        3.2532591219      -10.6973134330
 H        -0.7136147165        5.4193973850      -10.1089482215
 H        -2.2335389840        6.2147097635      -10.0880429383
 H        -3.9819672788        6.3141023794      -13.5448832513
 H        -2.9146662787        6.2950336340      -14.8894744657
 H        -3.8675441724        8.7519618805      -15.5234660414
 H        -5.0712606846        8.3204133709      -14.1097566420
 H        -3.3180185452        8.7497113750      -17.9516095048
 H        -4.0044592728        8.7622046758      -19.5686750430
 H        -2.2987738313        7.1859904349      -19.9801883066
 H        -3.3740953028        6.0608960335      -19.3746045367
 H        -1.5602509589        3.8521636766      -15.2769679922
 H        -0.9326730926        2.7572787369      -16.3332530254
 H        -3.8490805849        2.8903274590      -15.4267748320
 H        -2.6827807995        2.0805693133      -14.5375772118
 H        -6.9059466373        0.3889587173      -18.3763150390
 H        -5.4476126039        1.0021513247      -19.0294016941
 H        -7.1432488603        1.8649471645      -20.3205674103
 H        -6.0969747007        3.2242679453      -19.4786207994
 H       -11.8748215698        2.0444320374      -18.4113956436
 H       -10.9089569066        0.8214125048      -17.4510049850
 H       -11.2297306473       -0.9013636345      -18.9326091381
 H       -11.9084290503       -0.0449286578      -20.2018253588
 H       -17.2841055639       -0.9611118952      -19.2801146038
 H       -17.0540467435       -1.3304166839      -20.9572501854
 H       -17.5486046935        0.1786867933      -20.5038207011
 H       -13.5216890971       -1.0632257649      -21.5449396677
 H       -14.2784878653       -2.6605612705      -21.0077621381
 H       -12.7167926502       -2.1623037225      -20.4567290323
 H       -14.8635584700       -2.2590168263      -17.5845517434
 H       -13.8717533891       -3.2153712390      -18.6257435765
 H       -15.7026340681       -2.8245050147      -18.9985548763
 H       -10.7013583124        3.8839102159      -17.5648005602
 H       -11.3688466794        4.0082925778      -19.1846362937
 H       -10.0269517910        4.9007738546      -18.7663901062
 H        -8.7694738439        2.5397997372      -21.3790556200
 H        -9.3468890166        4.2846346951      -21.1130346385
 H       -10.5141765289        2.9394157695      -21.1748605167
 H        -5.5904469578       -1.5391605205      -16.4756458665
 H        -3.9197575238       -1.5457579397      -16.9245367826
 H        -5.0723549192       -0.8261345678      -18.0641907307
 H        -4.2785990733        0.0727572020      -14.1986416075
 H        -5.9237239593       -0.4186652769      -14.7655287196
 H        -5.4139238596        1.3134978333      -14.4075610624
 H         0.1383032769        4.7135273041      -19.9497466180
 H        -1.7144174320        4.9983842090      -20.3257856479
 H        -1.0427494265        3.5040989898      -19.7499991793
 H         1.1508732301        5.2407037511      -18.0389274621
 H         0.4744149759        3.7909720675      -17.1616389188
 H         0.2837102421        5.4777782709      -16.4018043120
 H        -7.9049750369        7.4235572798      -16.3355307482
 H        -7.5263200277        6.9567136587      -17.8490627044
 H        -8.0102858699        8.5583566698      -17.7143330021
 H        -4.7192096958        9.8327524777      -17.0695062610
 H        -6.1183762960       10.0211372713      -15.9936227357
 H        -6.2651520471       10.2527374051      -17.7626836816
 H         0.6051495416        6.8286626333      -11.3021285128
 H        -0.7149493329        7.8711726186      -11.0213586058
 H         0.4160875168        8.0900798658      -12.4067372339
 H        -1.0433914077        5.7743227814      -14.6358572652
 H         0.4486525174        5.5240070109      -13.6355885927
 H         0.1285416558        7.0203655974      -14.4560814899
 H        -5.0879349822        3.5755820732       -9.0625821066
 H        -4.4785896756        4.8411589168       -8.0743397240
 H        -5.5763185862        3.5963334454       -7.3339123516
 H        -3.6161462785        4.4293842579       -6.0462430128
 H        -2.3736699508        3.3079362392       -5.7738625708
 H        -3.9746541920        2.8319709160       -5.5719878462
 H         0.0278597984       -4.8238407798       -8.4798097318
 H         0.2775260954       -3.5450971921       -7.4772002925
 H        -0.1055440385       -3.2615457651       -9.1589030882
 H        -2.8538971927       -5.0804253892       -9.3251090294
 H        -2.6043710143       -3.3533013483       -9.8744152025
 H        -3.9157437926       -3.9481974818       -8.6233209053
 H        -2.3799414053      -10.3761439793       -4.6560883641
 H        -1.5655550363       -9.3342319500       -5.8460301628
 H        -2.9412086631       -8.8685324761       -5.1458359986
 H        -2.8453478234       -7.4617523126       -2.6591243818
 H        -1.6049378187       -8.0614827377       -1.5528134668
 H        -2.8552557770       -9.1522900771       -2.1667859059
 H         3.3668038679      -13.0929173618       -2.9378315461
 H         2.4223515528      -14.6237841102       -3.4720760245
 H         3.4561697383      -14.4895618729       -2.0057983081
 H         0.5875323989      -15.2201984153       -2.6639946496
 H        -0.4380410175      -14.3221808958       -1.5379240359
 H         0.9649406739      -15.3850625150       -0.9547992790
 H        -0.4382934901      -12.1580886843        4.3585960799
 H        -0.1968215810      -10.7990401222        5.5707405789
 H         1.0494214701      -11.3438344552        4.5106164090
 H        -2.4757779252      -10.1813192841        3.4670870787
 H        -1.8616903837       -9.1233296358        2.3483439470
 H        -1.7659936038       -8.6860029163        4.0621335343
 H         1.8902206406       -4.3713073860       -0.8428053301
 H         3.2086907158       -4.5928469981        0.4240054501
 H         1.4873048446       -4.5227048987        0.8314242526
 H        -0.1287161811       -6.2775921434        0.4007948693
 H         0.1016975470       -7.6176589574       -0.5181349859
 H         0.2384658760       -6.0789110102       -1.3180159511
 Na        2.1960433651       -9.8602080177       -0.3486484006
 Na       -5.7300855518        4.4214387420      -17.4061418241
