232

 C         4.1967847948       -6.1726007750       -1.5367686851
 C         2.9655520815       -7.0620361559       -1.2540548003
 O         2.7460516117       -8.1334840732       -1.8060506193
 C         1.9971359148       -6.5277899790       -0.2016113099
 C         2.3202568143       -7.3614840921        1.1015358438
 O         2.7748436267       -8.5109729099        1.0980937646
 C         1.8877357572       -6.7553790845        2.4966711113
 C         0.6480750606       -7.3829257185        3.1995568281
 C         0.8536028637       -8.9015673927        3.6838344350
 O         1.8086728337       -9.0232724703        4.4121408427
 C        -0.1575783525      -10.0875309281        3.3143714365
 C         0.3122354374      -10.4769315594        1.8959078269
 O         0.0694734901       -9.7383851010        0.9286058208
 C         1.1071528007      -11.7058910835        1.7313814284
 C         0.6083680894      -12.5835429752        0.5150946843
 C         1.6828811881      -12.8080872971       -0.4932902497
 O         2.7071012081      -12.1704659575       -0.4344882616
 C         1.4600783583      -13.6143028842       -1.7799234531
 C         0.8319783965      -12.5450905973       -2.8486887992
 O        -0.3664630369      -12.5383322236       -3.0663668570
 C         1.7381410865      -11.3951051888       -3.3611034674
 C         1.0267522709      -10.1875003934       -4.0516214233
 C         0.0785151057       -9.3563308581       -3.1624642474
 O         0.2116610254       -9.3853101862       -1.9611081941
 C        -1.2213918399       -8.6425567122       -3.7975191634
 C        -0.7215237181       -7.3966306176       -4.5745242936
 O         0.3862426751       -7.4428624331       -5.1224919317
 C        -1.5862180760       -6.2161732756       -4.7436181713
 C        -1.2531580911       -5.5496014488       -6.0912988277
 C        -2.2138381105       -4.5048726072       -6.4737247247
 O        -3.3671456567       -4.3882309415       -5.9937165136
 C        -1.8859524192       -3.5927492016       -7.7517002881
 C        -1.8695585291       -2.0895562738       -7.0836710075
 O        -1.0430350355       -1.7345539827       -6.3066295034
 C        -2.7800487405       -1.0376223129       -7.7997655005
 C        -2.5180679615        0.4693187504       -7.4166237174
 C        -3.4727865683        1.5080599604       -7.9665237319
 O        -4.2304187082        1.2749024345       -8.8716361470
 C        -3.4292748413        3.0689550053       -7.4749613848
 C        -2.2694772577        3.6606073273       -8.4806569192
 O        -1.1432959489        3.4698465269       -8.1642740031
 C        -2.6468961897        4.4552451258       -9.7877430375
 C        -1.5813310510        5.3069076864      -10.4224903206
 C        -1.8112339308        5.5393093781      -11.9339230651
 O        -2.4668795267        4.7509147977      -12.6164893736
 C        -1.2019746719        6.7921531210      -12.7125555063
 C        -2.2592824397        7.7592265079      -13.4284349344
 O        -2.0427954055        8.9516273833      -13.3985333568
 C        -3.5510405668        7.1448419829      -13.9829121908
 C        -4.4099256826        8.1427040147      -14.8955017394
 C        -5.2908802620        7.3265554195      -15.9244808054
 O        -5.3063884424        6.1623115554      -15.6320498202
 C        -5.9700195680        7.9063452172      -17.0947370116
 C        -5.1633628136        7.3863060973      -18.3321589565
 O        -5.5694487928        6.5379152384      -19.0654221141
 C        -3.7439478982        7.8582831074      -18.5554496552
 C        -2.7406600292        6.8359137486      -19.0214134217
 C        -1.7585881217        6.4661815345      -17.9683091884
 O        -1.3531548839        7.2562443286      -17.1461553893
 C        -1.2507498614        5.0192009076      -17.9111208433
 C        -2.3732979044        4.1994451119      -17.2778928617
 O        -3.4843271752        4.2135305539      -17.8054099675
 C        -1.9849544608        3.3222607715      -16.1302249874
 C        -3.1544413561        2.4890983552      -15.5750936635
 C        -3.3432140818        1.1644483321      -16.3824084589
 O        -2.5050675845        0.7877604899      -17.0988950059
 C        -4.6816436159        0.4252515609      -16.2501266239
 C        -5.7346833886        1.4225732360      -16.9644376104
 O        -6.0743280411        2.4575702831      -16.3708203344
 C        -6.2935223185        1.0196968109      -18.3030679000
 C        -6.8725293496        2.2208547451      -19.2129182296
 C        -8.0278368672        3.0795245262      -18.6974128392
 O        -7.8324718743        3.8944109867      -17.8016509838
 C        -9.4877444989        3.0057272625      -19.3041465894
 C        -9.9902148104        1.4992463074      -19.1095660810
 O        -9.1626880204        0.6297827841      -19.1808909172
 C       -11.4313186773        1.2045056947      -18.6914420258
 C       -11.9427453369       -0.1051117176      -19.3492128617
 C       -13.3260781699       -0.5373161952      -18.7566358682
 O       -13.6905037000       -0.0494141438      -17.7249781833
 C       -14.3284875969       -1.2557769740      -19.6493740546
 C       -15.3877346648       -0.0740495541      -20.0016361237
 O       -15.0947100677        1.1064912641      -19.7567417379
 C       -16.8312243704       -0.3887862769      -20.1518645596
 C       -13.8182294462       -1.6941974728      -21.0616697652
 C       -15.0815602039       -2.3219245095      -18.7989536263
 C       -10.3381001727        4.0976385132      -18.5902518847
 C        -9.4873990247        3.1880427243      -20.9960789710
 C        -4.5748007351       -0.9757038744      -16.8753397148
 C        -5.1878016835        0.2076192832      -14.7704884068
 C        -1.0529767148        4.5666369908      -19.4328353484
 C         0.1147930351        4.9060756565      -17.1618112253
 C        -7.4371887094        7.4534158137      -17.2937038055
 C        -5.9208520161        9.5318269008      -17.0018891874
 C        -0.3239981580        7.6366097108      -11.7785721570
 C        -0.3355891244        6.1605571526      -13.8178469200
 C        -4.8253178681        3.5761932593       -7.6592960767
 C        -2.9204018111        3.2006241719       -6.0349663981
 C        -0.4729421832       -3.8837230261       -8.3237030616
 C        -2.9134432783       -3.7635486424       -8.9521090453
 C        -1.9077060548       -9.7282871401       -4.7565968255
 C        -2.2669853285       -8.3769951504       -2.6614193517
 C         2.8723921715      -14.0750829053       -2.2951062938
 C         0.4863249742      -14.8819824846       -1.5778662485
 C        -0.0821411376      -11.0738401842        4.5356212963
 C        -1.6072139063       -9.6136337387        3.1344643887
 C         2.0765930305       -4.9837526279        0.1374226716
 C         0.4242349779       -6.8378123052       -0.3542250476
 H         4.9204051667       -6.1277263723       -0.6960963901
 H         3.9880237529       -5.0704160268       -1.8063778985
 H         4.7968144108       -6.5183329848       -2.3502340926
 H         1.7895234988       -5.6679156792        2.2960673364
 H         2.8055263921       -6.9869270684        3.1595491865
 H        -0.2997101505       -7.2323291702        2.5476048153
 H         0.4669640499       -6.7584852946        4.0520110826
 H         0.9992143977      -12.3548587015        2.7203538619
 H         2.1823671779      -11.4137748707        1.7363133760
 H        -0.2177299106      -12.0599311837        0.0281984475
 H         0.2196041458      -13.4463725273        0.9558108872
 H         2.3579548594      -11.8313387917       -4.1158298027
 H         2.3400314193      -11.1155797992       -2.5142555413
 H         0.4671606678      -10.6030145383       -4.8510293536
 H         1.8241187173       -9.6232882365       -4.5116600867
 H        -1.5075169908       -5.5319647949       -3.9550924986
 H        -2.6926078826       -6.5629231004       -4.7733064229
 H        -1.3536276010       -6.2861142016       -6.8610779807
 H        -0.1910948271       -5.3308787541       -6.2310802523
 H        -3.8326241391       -1.1872693931       -7.6232392039
 H        -2.6424600587       -0.9660033520       -8.8758815694
 H        -1.4941200203        0.7925248050       -7.8043918691
 H        -2.3936670511        0.7504858674       -6.3044254376
 H        -3.6214020266        5.0262889974       -9.4721868968
 H        -3.0045346547        3.6936270997      -10.4786069289
 H        -0.6359003970        4.7356988008      -10.3245675910
 H        -1.3644463322        6.1244592944       -9.7955996488
 H        -4.0298484616        6.7709924089      -13.0689620616
 H        -3.2420847284        6.1980293896      -14.4200845374
 H        -3.7820088274        8.8143968864      -15.4127850010
 H        -5.1466030353        8.6046546426      -14.2475658463
 H        -3.3937997299        8.4260847761      -17.6402319356
 H        -3.7203184668        8.6268109502      -19.3227264566
 H        -2.2612406774        7.1094309367      -19.9928230245
 H        -3.3553905056        5.9601907307      -19.3446638251
 H        -1.5212609830        3.9849715320      -15.3789814922
 H        -1.0645550014        2.8058989482      -16.4988486904
 H        -4.1308252481        3.0755777895      -15.4527906119
 H        -2.9049270704        2.1739798283      -14.5495339052
 H        -6.9876607817        0.2130987561      -18.1964072423
 H        -5.4634860536        0.6804400821      -18.9861293393
 H        -7.1020475424        1.7060001140      -20.1271395438
 H        -6.0912446008        2.9535830840      -19.3562446775
 H       -12.0543736374        1.9794137008      -18.9851217833
 H       -11.3743593658        1.1261152705      -17.5566128491
 H       -11.0987154004       -0.8167673778      -19.3093252164
 H       -11.9812704726        0.0221748495      -20.3966337879
 H       -17.2294172805       -1.0313504988      -19.3778503224
 H       -17.1494615464       -0.7963354000      -21.1164914342
 H       -17.4965872185        0.5687195089      -20.1444835548
 H       -13.5227955753       -0.7607909370      -21.5382539662
 H       -14.6615056790       -2.2732901758      -21.5991297753
 H       -12.9434141391       -2.3090417811      -21.1467322954
 H       -15.4237717890       -1.8991387806      -17.8681936774
 H       -14.3079549537       -2.9749479485      -18.4640596606
 H       -15.9061870998       -2.8657668707      -19.2160331652
 H       -10.5721390475        3.7718127440      -17.6274530638
 H       -11.3387638661        4.1695921143      -19.0410460348
 H        -9.9951926308        5.1573953803      -18.6227090866
 H        -8.9569945804        2.5208856284      -21.6470133388
 H        -9.2063627350        4.2490471162      -21.1170980527
 H       -10.5816122097        3.1603613501      -21.2402551211
 H        -5.5543366592       -1.4410317936      -16.9124569468
 H        -4.0143679932       -1.6413951933      -16.1995854498
 H        -4.1079522411       -0.9059973418      -17.8791360375
 H        -4.6620538122       -0.7499350577      -14.4384378361
 H        -6.2651399435        0.2486895290      -14.7994022508
 H        -4.8136130889        0.9253140927      -14.0457334309
 H        -0.3103251394        5.2136093047      -19.9604471480
 H        -1.9484886246        4.4320066930      -19.9575611782
 H        -0.5767030124        3.5194314293      -19.4723562654
 H         0.8237190350        5.6303968142      -17.5764901818
 H         0.5125962740        3.9377858119      -17.3709020931
 H         0.0128658717        5.0641758949      -16.1407995214
 H        -7.9994188805        7.6360755071      -16.3529648982
 H        -7.5682881500        6.3881743039      -17.2727618501
 H        -7.8482149227        7.9023973295      -18.2156320836
 H        -4.9875805644        9.9674255880      -17.2847894527
 H        -6.1757609766        9.8438706088      -16.0236981913
 H        -6.6953239497       10.0492703851      -17.6018639312
 H         0.5407719169        7.0127802397      -11.5703374352
 H        -0.8071941155        7.8951294840      -10.8082012414
 H         0.0945935999        8.5333053647      -12.3347253996
 H        -0.8545217714        6.1303646593      -14.7732301824
 H         0.0239694945        5.2286085655      -13.4354965944
 H         0.5364494449        6.6848401755      -14.0853021631
 H        -5.2135930334        3.1793114810       -8.6727375458
 H        -4.8807653182        4.6771475295       -7.6012098148
 H        -5.3245249993        3.0739425953       -6.8156846115
 H        -2.7281717518        4.2183368072       -5.7200868032
 H        -1.8844479094        2.6782319950       -5.9511801808
 H        -3.6065829110        2.6857230775       -5.3379622415
 H        -0.4579289233       -4.9447949146       -8.8461193886
 H         0.4415133710       -3.8220066259       -7.6264222277
 H        -0.2821778932       -3.1569085763       -9.1986533028
 H        -2.5723451507       -4.6128836530       -9.4917892895
 H        -2.9924335662       -2.9611142752       -9.5981663355
 H        -3.9334507866       -4.0575159654       -8.6982920324
 H        -1.9452747021      -10.6869102982       -4.2110653399
 H        -1.4178324155       -9.8440182348       -5.7176958803
 H        -2.9103561780       -9.6021698961       -5.1945922204
 H        -2.6939003546       -7.3446928263       -2.6617403403
 H        -1.8163492948       -8.6631652241       -1.7332231933
 H        -3.0952653057       -9.0634699903       -2.7905648839
 H         3.6053221009      -13.4305545843       -1.8496673798
 H         2.8888655296      -14.1716865408       -3.3625963635
 H         3.1439552603      -15.0238445613       -1.8888813081
 H         0.5480544909      -15.6245332219       -2.3909618438
 H        -0.5495469726      -14.5336473913       -1.5456162848
 H         0.7413720438      -15.3508637552       -0.6896615072
 H        -0.9986208254      -11.5790328882        4.6576423379
 H        -0.0165202927      -10.3555783383        5.3807838246
 H         0.8032496456      -11.7188952558        4.6156528821
 H        -2.2823835721      -10.4276798965        2.9573678364
 H        -1.6878635372       -9.0012529434        2.2851948351
 H        -2.0151485925       -9.0613480920        3.9416377924
 H         2.1831982559       -4.3728122583       -0.7342433106
 H         2.9628264383       -4.9066931393        0.7152487954
 H         1.3041955880       -4.5863515518        0.7715564988
 H        -0.0801879693       -6.7424530869        0.6192849470
 H         0.2730618095       -7.9114666870       -0.5480889260
 H        -0.0496041585       -6.3685432614       -1.1956098008
 Na        2.2227806018       -9.9715278610       -0.5447892635
 Na       -5.7126306016        4.4681204763      -17.1393451727
