232

 C         4.1402225819       -6.1992329418       -1.5876449397
 C         2.8688821826       -7.0074237825       -1.2802112520
 O         2.7793135184       -8.0898337886       -1.8500792708
 C         2.0276666932       -6.5843551880       -0.0742457124
 C         2.3110882985       -7.4131408029        1.1652745895
 O         2.7997354212       -8.5217248407        1.0090288728
 C         2.0598125231       -6.8740801433        2.6488196895
 C         0.7218997719       -7.3252728579        3.1308586481
 C         0.8458369347       -8.7064130741        3.7993359300
 O         1.7897914221       -9.0757469635        4.4371278215
 C        -0.1970724322       -9.8253075072        3.3772071293
 C         0.3856971888      -10.3732790553        1.9163898246
 O         0.2754165362       -9.6084865448        0.9815918911
 C         1.1072514739      -11.7642489434        1.7494063788
 C         0.5897585012      -12.7118855650        0.6138129393
 C         1.7003099922      -12.7204979164       -0.5314524618
 O         2.7138257062      -12.0712565933       -0.4566841280
 C         1.5063892669      -13.6170587012       -1.7275310579
 C         0.8482871971      -12.5219882744       -2.7166008881
 O        -0.3162602094      -12.5866080236       -2.9921393942
 C         1.8144566347      -11.3924967759       -3.3983706382
 C         1.0697993532      -10.2649722784       -4.0811669891
 C         0.1037012864       -9.5466554915       -3.2444079004
 O         0.2159432867       -9.4690260349       -1.9950393407
 C        -1.1355191621       -8.7964161427       -3.8063571622
 C        -0.7764760623       -7.4748607773       -4.7027177770
 O         0.3405860178       -7.3859767933       -5.2060685246
 C        -1.6812435809       -6.2223345115       -4.8454956681
 C        -1.3087096887       -5.5213463130       -6.2186528829
 C        -2.3271347167       -4.4865432482       -6.5587765291
 O        -3.2069641169       -4.3007395450       -5.7797672822
 C        -2.0014605230       -3.4656366653       -7.7936626241
 C        -1.9163433375       -1.8859973227       -7.1972747966
 O        -1.2410458432       -1.6203633413       -6.2228641512
 C        -2.7049871618       -0.8651636260       -7.9301009345
 C        -2.3815860890        0.5029172838       -7.4013652475
 C        -3.3715669756        1.4633120523       -8.0078245539
 O        -4.1370925965        1.1648092449       -8.9050044782
 C        -3.3520166020        2.9198552459       -7.4718455756
 C        -2.2848786225        3.6613814900       -8.4727960266
 O        -1.1128153350        3.4832507367       -8.3654211009
 C        -2.7430123009        4.5216411962       -9.7048168968
 C        -1.5507221444        5.2304902222      -10.3760610922
 C        -1.8336650027        5.5663267017      -11.8270293367
 O        -2.5070515881        4.7603852871      -12.5123643796
 C        -1.1642895484        6.8144408331      -12.5477728396
 C        -2.3634865311        7.7909641056      -13.2748217470
 O        -2.0754278263        8.9427318668      -13.5030772898
 C        -3.6342723419        7.1957219705      -13.8769897760
 C        -4.2950346740        8.2003895322      -14.8488265355
 C        -5.1550183912        7.2768118161      -15.7684915066
 O        -5.2839450264        6.0744634649      -15.6057248983
 C        -5.9679388706        7.8876611161      -17.0914943646
 C        -5.1464905717        7.3710293960      -18.3347099212
 O        -5.5225582276        6.3856058170      -19.0197034766
 C        -3.6860086160        8.0287835785      -18.5143939469
 C        -2.7126002238        6.9132526900      -19.0730641026
 C        -1.7098224035        6.4619469164      -17.9592038821
 O        -1.3463711814        7.1937513145      -17.0642737877
 C        -1.2384620952        4.9513100730      -18.0153510469
 C        -2.4207867267        4.0704061029      -17.3759744791
 O        -3.5025819204        3.9553681498      -17.9134535845
 C        -2.0928552595        3.3085291612      -16.0634890992
 C        -3.2662630250        2.5319622980      -15.5150259814
 C        -3.3856827718        1.2466489889      -16.3871958985
 O        -2.5992172766        0.9289917879      -17.2365657609
 C        -4.7606310828        0.3991399595      -16.2289764125
 C        -5.7969504842        1.2662721261      -16.9554355725
 O        -6.0689640300        2.3216120151      -16.4121107213
 C        -6.4224722705        0.9673211136      -18.3161118209
 C        -6.8677621828        2.1711731552      -19.1516364463
 C        -8.0037571939        3.0462801105      -18.6297134778
 O        -7.9313101439        3.9484868966      -17.7758301998
 C        -9.4283159663        2.9226134254      -19.2697273381
 C       -10.0221085593        1.4956361156      -19.0613265766
 O        -9.2323664860        0.5204565761      -18.9336011904
 C       -11.4765066186        1.2833416136      -18.8943807647
 C       -11.9457453409       -0.0537201531      -19.4238908826
 C       -13.2952322521       -0.4180085314      -18.8195511572
 O       -13.4747916646       -0.3537393216      -17.6236807122
 C       -14.4517484077       -1.0972537478      -19.7575793767
 C       -15.5248355597        0.0394367357      -19.8505666302
 O       -15.0449279016        1.1673351841      -19.7525603686
 C       -16.9533524255       -0.3814226611      -20.2151149720
 C       -13.9973653906       -1.7478222587      -21.1431869191
 C       -15.1192558753       -2.2820331557      -19.0365967925
 C       -10.2154130559        4.0217166211      -18.6527225244
 C        -9.4147981648        3.2189238549      -20.8140325280
 C        -4.4734874249       -0.9398897183      -16.9256584514
 C        -5.2156662870        0.2447765420      -14.7024535097
 C        -1.0540053843        4.2798673888      -19.4609736457
 C        -0.0151367365        4.9971092996      -17.0941731711
 C        -7.3729725374        7.3618504733      -17.1184902810
 C        -6.0103195217        9.4072935965      -17.0765917267
 C        -0.3160839923        7.8403635721      -11.7711980960
 C        -0.3806855732        6.2359287631      -13.7347061949
 C        -4.7845259917        3.5698962957       -7.4356907713
 C        -2.7136155101        3.0212051553       -6.0784142584
 C        -0.5812152172       -3.8503472378       -8.3219144225
 C        -2.9228608065       -3.5519548602       -8.9030024178
 C        -1.8035748739       -9.8567942210       -4.7257782092
 C        -2.2160866545       -8.4122559913       -2.7510776342
 C         2.8153149161      -14.2999749436       -2.2495315819
 C         0.5103753695      -14.7934591662       -1.6200080675
 C        -0.0429897827      -11.0672987246        4.3760762078
 C        -1.6232959301       -9.4335594136        3.0911479761
 C         2.0756131955       -5.0137633087        0.0737432425
 C         0.5810928884       -6.8424518003       -0.5887294504
 H         4.9433435014       -6.4446123899       -0.9410278659
 H         4.1266650355       -5.1353598689       -1.6417880964
 H         4.5076621222       -6.5349579959       -2.5979955716
 H         2.1719438728       -5.7380216780        2.5575404411
 H         2.9020904279       -7.3799998864        3.2675190870
 H         0.0025601618       -7.2299576923        2.3063608854
 H         0.3615032676       -6.5749965050        3.8362472417
 H         1.2804612410      -12.2753470513        2.6832792645
 H         2.1283455581      -11.4432792813        1.4612548617
 H        -0.4656598576      -12.3667731114        0.3784098069
 H         0.5322150217      -13.7380942382        1.0468042813
 H         2.4319337426      -11.9398068255       -4.1053598501
 H         2.4723898275      -10.9786815146       -2.6730655084
 H         0.6599735269      -10.5695726564       -5.0563721256
 H         1.8176944078       -9.5065874054       -4.2904196002
 H        -1.4103676312       -5.4758130973       -4.0785497662
 H        -2.7706055520       -6.3758716923       -4.8221771483
 H        -0.9532855001       -6.2335130456       -7.0070766513
 H        -0.3165262270       -4.9759548003       -6.0599495776
 H        -3.6960799863       -1.0507938715       -7.6851006048
 H        -2.7221101919       -0.7348958561       -9.0055728191
 H        -1.2870653775        0.7459880351       -7.6665175718
 H        -2.3750462082        0.6306791435       -6.2746961059
 H        -3.3926294570        5.2881839315       -9.1875739944
 H        -3.3733670634        3.9486408788      -10.3022369991
 H        -0.6367006076        4.5953326296      -10.1995146539
 H        -1.3300980775        6.0522312933       -9.7251855786
 H        -4.2528290174        6.8274339959      -13.0729859684
 H        -3.2905318799        6.2760683965      -14.3434388872
 H        -3.6114844117        8.6910820980      -15.4566651419
 H        -5.0636878782        8.8007641392      -14.3588576919
 H        -3.3508146317        8.4294578809      -17.6189925983
 H        -3.6943015409        8.9011979173      -19.2103807111
 H        -2.1168309183        7.1839887537      -19.9363195859
 H        -3.3604090148        6.1532723172      -19.4833684869
 H        -1.7598747414        4.1216372731      -15.3420134260
 H        -1.1438162283        2.7601563093      -16.2012438209
 H        -4.2454316976        3.0579738103      -15.6291009581
 H        -3.1400618422        2.3425681069      -14.4014996240
 H        -7.3831205197        0.3050150058      -18.0996229732
 H        -5.7911033888        0.4044402973      -19.0195964519
 H        -7.0044507628        1.8104575947      -20.1604303285
 H        -6.0658264551        2.8766222945      -19.1815637379
 H       -12.0938948351        2.0778686323      -19.3623654882
 H       -11.5758321013        1.3076733032      -17.8179248123
 H       -11.1800318762       -0.8523182696      -19.1518342809
 H       -11.8782948532       -0.0967461690      -20.4839157245
 H       -17.4609711008       -1.0608854800      -19.5979256800
 H       -16.8803209797       -0.8279158259      -21.2580328884
 H       -17.6627632956        0.3946000788      -20.4193770703
 H       -13.2904882614       -1.1993647015      -21.7080655453
 H       -14.8193594916       -2.0717802627      -21.7032591016
 H       -13.4559476511       -2.6607349584      -20.8806416096
 H       -15.6951749360       -2.0104262936      -18.2473216649
 H       -14.3357607869       -2.9289128943      -18.6184467876
 H       -15.7443268918       -2.8856863710      -19.6522432539
 H       -10.4274593471        3.7948251536      -17.5655517956
 H       -11.2319413319        4.0398544182      -19.0319856020
 H        -9.8847925042        5.0495059777      -18.8864009962
 H        -8.8848232792        2.4003284682      -21.3362240875
 H        -8.8627151613        4.1636941224      -20.9281970956
 H       -10.3811970385        3.2944438262      -21.1933130800
 H        -5.3409028870       -1.4032686052      -17.4160221891
 H        -4.1312624850       -1.6755238326      -16.2482101871
 H        -3.7293758783       -0.6903578371      -17.6611208112
 H        -4.7950896848       -0.6307526342      -14.3389130957
 H        -6.2992385990        0.4342697878      -14.6377161569
 H        -4.7572401966        1.0130284836      -14.0609926404
 H        -0.9874841166        5.0447421756      -20.1678068635
 H        -1.9023631522        3.6517431183      -19.7371365362
 H        -0.2321891590        3.7036326635      -19.5522647640
 H         0.5963498370        5.8428281202      -17.2738673731
 H         0.5574055715        4.1846071602      -17.3388613911
 H        -0.3021599874        5.0011330363      -16.0397472252
 H        -7.9930105414        7.8949295535      -16.4327194292
 H        -7.3798878473        6.4568427012      -16.4280789689
 H        -7.8961221073        7.1848089541      -18.1140956848
 H        -5.0927927069        9.8595754973      -17.1110641176
 H        -6.6484441125        9.7790380354      -16.2716651645
 H        -6.5692501240        9.8003799392      -17.9483090797
 H         0.5972642096        7.4263849868      -11.3030293108
 H        -0.9251405882        8.3964962338      -11.0379928160
 H         0.0295304066        8.5518514837      -12.5886026716
 H        -0.9575460754        6.1524047106      -14.6341318353
 H         0.1061349356        5.3336294337      -13.3839383410
 H         0.4117941410        6.8745644478      -14.0994097166
 H        -5.2483028624        3.5035848350       -8.3951666830
 H        -4.6760771038        4.5637528957       -7.0795678535
 H        -5.2824044107        2.9448932676       -6.6360891673
 H        -2.5424372532        4.0949884995       -5.7245937893
 H        -1.7204659046        2.5810535130       -6.0347236483
 H        -3.3669017966        2.4255479330       -5.3429578933
 H        -0.6563287802       -4.8982033384       -8.5087708190
 H         0.2386837491       -3.7045606024       -7.5951135785
 H        -0.2106815464       -3.4030849733       -9.3166563587
 H        -3.0070779536       -4.4967560677       -9.3336281252
 H        -2.6259564566       -2.7869774514       -9.6915094574
 H        -3.9216111107       -3.2447054932       -8.6658904566
 H        -2.0696728187      -10.8019258796       -4.1902625834
 H        -1.2338042513      -10.0736554252       -5.6320518560
 H        -2.6549708561       -9.6011186852       -5.2260658362
 H        -2.4281835302       -7.3619232747       -2.8313872337
 H        -1.8511880304       -8.6995193281       -1.7458498215
 H        -3.2061917167       -8.9424360209       -2.8908038561
 H         3.7241813458      -13.8797271830       -1.7934377637
 H         2.8496878815      -14.4692578631       -3.3578304153
 H         2.8060915969      -15.2324214288       -1.8190421903
 H         0.5365663624      -15.4604803022       -2.4894915616
 H        -0.5418166862      -14.4168883291       -1.5488643718
 H         0.7662052134      -15.3560804672       -0.7478606673
 H        -0.8863881117      -11.7655638003        4.1155082486
 H        -0.2503281550      -10.7248811929        5.4147526140
 H         1.0059741265      -11.4953337900        4.3995279019
 H        -2.1968650647      -10.2211920171        2.6341831185
 H        -1.6960045564       -8.5370401211        2.4690189263
 H        -2.1870312923       -9.1950322854        3.9976795757
 H         2.2248289760       -4.6103277086       -0.8967338865
 H         2.9252506968       -4.7309858566        0.6894887425
 H         1.2259973458       -4.6006960224        0.5693704223
 H        -0.2092206201       -6.5988779522        0.1455860423
 H         0.4117478301       -7.9391589097       -0.7583984101
 H         0.4686965573       -6.4483040137       -1.6115222354
 Na        2.0120726406       -9.9546203713       -0.6905609352
 Na       -5.7035205496        4.6535588647      -17.1098574600
