232

 C         4.3300012053       -5.9086134190       -1.9434569159
 C         3.3108085044       -6.8181006734       -1.3346461852
 O         3.0301802396       -7.8579983958       -1.9127768398
 C         2.5452857723       -6.4264889681       -0.0331705990
 C         2.7667316164       -7.4137207535        1.0974183350
 O         3.0844249890       -8.5744364011        0.8577097791
 C         2.7261973124       -6.9346680127        2.5277311705
 C         1.2335037334       -7.2270633549        3.0389688873
 C         1.0859184608       -8.6003249020        3.6468609608
 O         1.6621556863       -8.9681111620        4.6094373186
 C        -0.1324839342       -9.6271437526        3.2087468418
 C         0.3941308983      -10.3134886109        1.9224005178
 O         0.2018987428       -9.7120486359        0.8602438077
 C         1.3639272669      -11.5693682337        1.9167867285
 C         1.1095657149      -12.7237525897        0.9539679689
 C         1.6967198562      -12.3786975597       -0.4158178653
 O         2.6729317691      -11.6123730694       -0.6153242370
 C         1.2726588215      -13.2628086059       -1.5807732569
 C         0.7357456947      -12.5541460530       -2.9166157248
 O        -0.3059001030      -12.9240365332       -3.3743042607
 C         1.6879041384      -11.6356839740       -3.7446292696
 C         0.8255145236      -10.6240696931       -4.5439026238
 C        -0.0724524881       -9.7878063665       -3.6390462287
 O         0.2487136365       -9.3293522948       -2.5524989760
 C        -1.4188157466       -9.3125210164       -4.3604488251
 C        -0.8335337446       -8.0291965216       -5.1987011691
 O         0.3939680280       -8.0476025143       -5.4184396358
 C        -1.7483242882       -6.9818452959       -5.6878095291
 C        -1.0306507550       -5.7946847696       -6.4306330870
 C        -1.8860985575       -4.5309339576       -6.4324127453
 O        -2.6630413272       -4.2597368896       -5.5310943789
 C        -2.0358835112       -3.5751847399       -7.7084311072
 C        -2.0130621232       -2.0138468902       -7.1384230474
 O        -1.9766189560       -1.7098056338       -6.0012565556
 C        -2.2671138367       -0.8862844914       -8.1329788707
 C        -1.8309601592        0.5388279424       -7.6789830799
 C        -2.9631602869        1.5642727640       -7.9670045678
 O        -3.9759345720        1.3676287222       -8.5557775597
 C        -2.8068530785        3.0805753498       -7.3208833666
 C        -2.0380770411        3.8823695084       -8.4627127164
 O        -0.8925511258        3.6547403457       -8.6767059143
 C        -2.8272353785        4.9064708054       -9.2874053877
 C        -1.8973777071        6.1202047570       -9.7353213585
 C        -1.9544937442        6.1965059942      -11.2809149514
 O        -2.5110197395        5.3855240971      -12.0261642492
 C        -1.2842368868        7.3035228345      -12.1209385427
 C        -2.4178305092        8.0961966708      -12.9020145488
 O        -2.2653727381        9.2636841483      -13.2152885631
 C        -3.7002303597        7.3192198350      -13.3590499027
 C        -4.2605183020        8.0755255589      -14.5547107232
 C        -4.9232993011        7.1356357946      -15.5581709253
 O        -4.8292528967        5.8990423489      -15.4611611268
 C        -5.6448514685        7.7724183901      -16.8187089754
 C        -4.8143654796        7.0838684422      -18.1405335083
 O        -5.2126868816        6.0078135999      -18.5216785982
 C        -3.7076995814        7.8777724562      -18.7142142876
 C        -2.4399256193        6.9888086531      -19.1443861068
 C        -2.0028527432        6.1234501016      -17.9174453932
 O        -2.1371433332        6.5280927607      -16.7894693463
 C        -1.4977665940        4.6541443181      -18.1422158053
 C        -2.6451947582        3.8583741360      -17.4290687586
 O        -3.7397862488        3.6357290603      -17.9395738343
 C        -2.4212274495        3.5935384282      -15.8978954849
 C        -3.3960049654        2.5519306533      -15.3842699109
 C        -3.4985316588        1.3256322731      -16.4146773087
 O        -2.6837916997        1.2670554307      -17.2315982585
 C        -4.7066812951        0.3372186380      -16.1908888818
 C        -6.1021013579        1.1651095356      -16.7552872237
 O        -6.6569655257        1.9501506185      -15.9963723816
 C        -6.7244232683        0.7948706951      -18.0555586414
 C        -7.2381425842        1.9203687675      -19.1313127274
 C        -8.3052142458        2.9273661509      -18.7453321441
 O        -7.9888708757        3.7773024876      -17.9157705882
 C        -9.7591644116        2.8593859520      -19.3672940863
 C       -10.3962095249        1.4372302284      -18.8523558205
 O        -9.7074338171        0.7288301426      -18.1297382236
 C       -11.7958901204        1.0730954413      -19.2439608293
 C       -12.0635358038       -0.1350166194      -20.1795012614
 C       -13.3384112332       -0.9744575726      -19.4375785886
 O       -13.0237792604       -1.4638129399      -18.4107473886
 C       -14.8011479662       -1.0854308920      -20.0391786479
 C       -15.4012124782        0.3269694964      -20.0577330080
 O       -14.7329066736        1.2574735891      -19.5586043529
 C       -16.8142049418        0.5108368197      -20.4067534728
 C       -14.6311174442       -1.6643719754      -21.5041347347
 C       -15.5972985849       -1.9954795642      -19.0443954010
 C       -10.6135663834        3.9546677564      -18.7262680892
 C        -9.6914462906        2.8812539704      -20.9534254857
 C        -4.4291978786       -0.9739661349      -16.9361584019
 C        -5.0126792047        0.1063998640      -14.6471678328
 C        -1.2772240661        4.1021522231      -19.6425332248
 C        -0.1532752174        4.5756480308      -17.4874734001
 C        -7.0666565845        7.2497446038      -16.9425978640
 C        -5.5924389798        9.2870011953      -17.0648580441
 C        -0.3568971924        8.3090819381      -11.3035057826
 C        -0.4409656363        6.5106722571      -13.2350713755
 C        -4.1878946978        3.6991609153       -6.9650068650
 C        -1.8382329742        3.1540404668       -6.0847811542
 C        -0.7852153937       -3.6878928830       -8.6972367328
 C        -3.4415787385       -3.7048290589       -8.3362723968
 C        -1.9938361753      -10.2974187857       -5.4099083907
 C        -2.5726188570       -8.8546109941       -3.4294957678
 C         2.5215677181      -13.9447777223       -2.0500909608
 C         0.2167677793      -14.3030515292       -1.1959734693
 C        -0.2797674470      -10.7163955513        4.3097419312
 C        -1.5186776400       -8.8162987502        3.1421348060
 C         2.6878216959       -4.9660016838        0.4206546330
 C         1.0415187013       -6.5357051175       -0.5099744791
 H         4.7490419111       -5.1943606086       -1.2854809417
 H         3.8733340189       -5.2626217403       -2.7085268853
 H         5.1350721347       -6.4363340837       -2.3651666352
 H         2.9894824083       -5.9458315410        2.5940390477
 H         3.4239684073       -7.4167839410        3.1510001189
 H         0.6035774298       -6.9178208750        2.1788849988
 H         1.0996155791       -6.4954111241        3.8059253381
 H         1.5179947656      -12.0646239054        2.9224367579
 H         2.2858415096      -11.1861862674        1.7012739419
 H         0.0290421046      -13.0558900445        0.8760908934
 H         1.6148435098      -13.6768556408        1.3239428672
 H         2.3396941851      -12.1780917894       -4.4738820615
 H         2.5314611647      -11.1940490251       -3.1232709685
 H         0.2810418342      -11.1993890207       -5.3014263703
 H         1.5526299224       -9.9277347452       -5.0612564055
 H        -2.3078389732       -6.5003836273       -4.8872690599
 H        -2.5163874443       -7.3034180967       -6.4527568979
 H        -0.8346025016       -6.1422600378       -7.4668580653
 H        -0.0596096529       -5.7841383938       -5.9013092365
 H        -3.3301322681       -0.9784508340       -8.4799382744
 H        -1.8691322929       -0.9767659352       -9.1349034669
 H        -0.9499174297        0.7533306043       -8.2119456527
 H        -1.5266511984        0.5350079612       -6.6520929829
 H        -3.7392176184        5.3379227361       -8.7630891117
 H        -3.1374737677        4.4872825152      -10.2170002939
 H        -0.8370705532        6.0228360438       -9.4972328570
 H        -2.3286878589        7.0275210932       -9.2267760815
 H        -4.3041353186        7.4056195217      -12.4139346399
 H        -3.3215890270        6.3224116974      -13.5767567595
 H        -3.5236618765        8.6983788904      -15.1561550263
 H        -5.1207959477        8.6313689925      -14.1932820141
 H        -3.4023492196        8.6577938805      -17.9711659730
 H        -4.0617721724        8.3707256362      -19.5451623314
 H        -1.5718615320        7.5811390387      -19.2917949612
 H        -2.6845247441        6.4455429281      -20.0109916746
 H        -2.6136126392        4.4775497647      -15.3115883931
 H        -1.3638588390        3.3040290313      -15.7452816009
 H        -4.3459409382        3.0931787419      -15.4005435368
 H        -3.1675618168        2.2686681880      -14.3880744494
 H        -7.6340192479        0.3398154331      -17.6912414160
 H        -6.1618422670       -0.0194299691      -18.6276811086
 H        -7.5363744126        1.5770424515      -20.1486414498
 H        -6.3175005077        2.4979922206      -19.4546483037
 H       -12.2890522329        1.9454142461      -19.5626260903
 H       -12.3603017616        0.8186331792      -18.2808774495
 H       -11.2179269093       -0.8520444443      -20.1842102954
 H       -12.2695646620        0.2440643830      -21.2183830326
 H       -17.4011575906        0.5423303330      -19.5629444265
 H       -17.2652244058       -0.3062651400      -20.9645354112
 H       -16.9650969017        1.4569209834      -20.9215543664
 H       -14.5861127074       -0.9299992291      -22.2379781283
 H       -15.4585560954       -2.2867610457      -21.8613481802
 H       -13.7683961909       -2.2178285961      -21.5699357275
 H       -15.6540626761       -1.4164591970      -18.1536315540
 H       -15.1359411511       -2.9445531446      -18.7832677838
 H       -16.5993937543       -2.2519603145      -19.3837769440
 H       -10.2606680203        4.0261404751      -17.7058144996
 H       -11.7146581564        3.7888578104      -18.6546033755
 H       -10.2409545502        4.9575331541      -19.0998934373
 H        -9.1605264633        2.0395528447      -21.2679139642
 H        -9.3706782408        3.8397682928      -21.3397626386
 H       -10.7588829417        2.7427076802      -21.1760190517
 H        -5.3061732829       -1.5402455569      -17.0573775573
 H        -3.6837110985       -1.5078571965      -16.3474756402
 H        -3.9310179801       -0.8290873523      -17.8898829213
 H        -4.1670558006        0.3482366366      -13.9291698874
 H        -5.1154280477       -0.9389890927      -14.4687132587
 H        -5.9190102989        0.5802077273      -14.3685973960
 H        -1.6612008970        3.1245556645      -19.8068642844
 H        -0.2054786544        3.9839851360      -19.7510043377
 H        -1.6025319116        4.8257225265      -20.3575482542
 H         0.4732938224        5.4555227584      -17.7575383280
 H         0.3364232086        3.6383700164      -17.6691481419
 H        -0.2835069196        4.6963314582      -16.4387174725
 H        -7.2928375459        6.8664344549      -17.9782228076
 H        -7.7805828629        7.9518609592      -16.5043885258
 H        -7.3013264083        6.3739064714      -16.2899172653
 H        -4.6937334211        9.6966002870      -16.6271081615
 H        -6.3052588605        9.7980351626      -16.4300789297
 H        -5.6979327186        9.6304312209      -18.1585033879
 H         0.1820937259        7.6723226792      -10.6338551601
 H        -0.9728463642        9.0140015579      -10.7100255018
 H         0.2996687668        8.9987786784      -11.8829979322
 H        -1.1658687140        5.9807218725      -13.8941304718
 H         0.0898489798        5.6293904484      -12.8478101683
 H         0.2446669215        7.1455359166      -13.7732464701
 H        -4.8919246104        3.6123309341       -7.7828171326
 H        -4.0000345882        4.6835345794       -6.6508305227
 H        -4.6586115150        3.1710071136       -6.1731838787
 H        -1.6740945232        4.1645890956       -5.7340648253
 H        -0.8279679985        2.6557301169       -6.3173677969
 H        -2.2962001774        2.5929320053       -5.2476546280
 H        -0.7205517408       -4.5875575538       -9.2472261745
 H         0.1178916247       -3.5811757628       -8.2110379274
 H        -0.7873196653       -2.9434655872       -9.4465724878
 H        -3.5567322772       -4.5616500046       -9.0791843406
 H        -3.8568107987       -2.9070510019       -8.9235456263
 H        -4.1992529009       -3.8970296740       -7.5117282972
 H        -2.1445078036      -11.3219311681       -5.1663100255
 H        -1.4270001503      -10.4849423908       -6.2634364284
 H        -2.9963776505       -9.9988999527       -5.6583241024
 H        -2.3339184325       -8.9800967826       -2.3196671007
 H        -3.4704959185       -9.4279862747       -3.5597435395
 H        -2.8972859649       -7.8140021424       -3.5548819852
 H         3.3100507237      -13.1721650447       -2.1657264096
 H         2.4990479281      -14.3189989290       -3.0890578393
 H         2.7181710880      -14.7426505884       -1.3496834934
 H         0.0477422541      -15.1700374952       -1.9087283891
 H        -0.7846120559      -13.8298472216       -1.0184555237
 H         0.4815067878      -14.7696840231       -0.2783498786
 H        -1.1827650991      -11.3552469953        4.2869062399
 H        -0.2984600478      -10.2558924288        5.3652732716
 H         0.6395952119      -11.3896760472        4.3085711869
 H        -2.4039790361       -9.3715141120        3.5354081817
 H        -1.6804594829       -8.4361145436        2.1376478502
 H        -1.3922644333       -7.9138976784        3.7608742375
 H         2.1584997439       -4.2584828555       -0.2114275449
 H         3.7385341977       -4.7635407307        0.4150631000
 H         2.2061387888       -4.8017314586        1.3826523870
 H         0.2892234934       -6.4763336084        0.3026159052
 H         0.8233078191       -7.3887071525       -1.1950630418
 H         0.7094770464       -5.6426841640       -1.0649912969
 Na        1.8130152182       -9.5963756038       -0.9825350277
 Na       -5.8573671741        4.1780343828      -16.7740986366
