232

 C         4.3881827452       -5.8152079472       -1.9746459101
 C         3.3123686943       -6.7809899511       -1.3081156863
 O         3.1193078106       -7.8274901836       -1.8640725216
 C         2.5340473865       -6.3646349631       -0.0687366546
 C         2.8675863026       -7.4541157046        1.0724362260
 O         3.0332907361       -8.6266404257        0.8703457025
 C         2.7393922257       -7.0465281321        2.6129751570
 C         1.2621321044       -7.2316920702        3.0326253621
 C         1.0755909295       -8.6287740761        3.6968266417
 O         1.8850209851       -8.9354884372        4.5647531100
 C        -0.0717259279       -9.5972249689        3.2077932344
 C         0.3657541601      -10.2360606979        1.7763654425
 O         0.2371320253       -9.5971271628        0.7404601558
 C         1.3710801258      -11.3254944742        1.9293664780
 C         1.2151129521      -12.5891881857        1.0183234667
 C         1.6589000546      -12.3606181675       -0.4481041140
 O         2.4889756002      -11.5253651099       -0.5873341984
 C         1.2775042929      -13.3816193952       -1.6150871900
 C         0.6932458829      -12.6912134884       -2.9432255487
 O        -0.3451972920      -12.9529215828       -3.5030987124
 C         1.6311464289      -11.6832641408       -3.6275757467
 C         0.7427038181      -10.7598341411       -4.4361380693
 C        -0.1559737864       -9.8234953015       -3.7041634366
 O         0.1983891938       -9.1280173709       -2.7298495207
 C        -1.4715291701       -9.3699043888       -4.4648454704
 C        -0.8031075824       -8.1373278987       -5.3038900496
 O         0.3923613302       -8.1143651354       -5.4627072117
 C        -1.7477262201       -7.0520234012       -5.7857173455
 C        -1.1090531503       -5.7788613372       -6.6084343004
 C        -1.9419548671       -4.4135548490       -6.5212893600
 O        -2.5873924628       -4.1621387636       -5.5385527980
 C        -1.9872336877       -3.4310294637       -7.6901243762
 C        -2.0469072991       -1.9769807295       -7.0115521444
 O        -2.0036744477       -1.9460974906       -5.7681758209
 C        -2.2974804216       -0.8886312009       -8.0567147888
 C        -1.8227875276        0.5673324165       -7.7424319188
 C        -2.9004315109        1.5261084047       -7.9152010532
 O        -3.9744438344        1.2753290335       -8.4197090522
 C        -2.7043935489        3.0163530022       -7.3181164559
 C        -1.9759762034        3.9814473065       -8.3920723641
 O        -0.7955694212        3.7740479247       -8.6009421163
 C        -2.8190480554        4.9759576525       -9.1638098721
 C        -2.0105858389        6.2399844504       -9.7269739169
 C        -1.9800983892        6.2723438988      -11.2212675760
 O        -2.4452412608        5.2792151101      -11.8049245900
 C        -1.3045271314        7.3966268904      -12.0718123175
 C        -2.4055194669        8.1298423437      -12.9095781331
 O        -2.3939867714        9.2862965131      -13.1853891648
 C        -3.5833385385        7.2745094140      -13.4551740916
 C        -4.3008263885        8.1417930787      -14.5044426794
 C        -4.8995270596        7.2306024142      -15.6616381988
 O        -4.8398261039        6.0454752900      -15.4409766111
 C        -5.6141833459        7.7214836431      -16.9028950759
 C        -4.8129493357        7.0424883229      -18.1054038173
 O        -5.1004914359        5.9098615052      -18.4756443557
 C        -3.6622290871        7.8684752913      -18.7120143915
 C        -2.4258104997        7.0217553689      -19.1998530507
 C        -2.0581041574        6.0151235421      -18.0428575002
 O        -2.2022424873        6.4115174822      -16.9249968154
 C        -1.4878176614        4.5895308897      -18.2085422644
 C        -2.6369620939        3.8259239059      -17.3781525335
 O        -3.7486383096        3.6175916412      -17.8489867491
 C        -2.3795658040        3.5717937955      -15.8750582569
 C        -3.4806126320        2.6104881983      -15.3621903225
 C        -3.5193336266        1.4151442530      -16.2948408804
 O        -2.6924261086        1.1050300466      -17.1505948537
 C        -4.7975753181        0.3785958817      -16.2036514126
 C        -6.1473394398        1.0336894536      -16.7693369995
 O        -6.6574329898        1.8716149800      -16.0108406851
 C        -6.8176114855        0.5851648328      -18.0774007587
 C        -7.2446236380        1.7536942165      -19.0058577223
 C        -8.3453389436        2.7911428942      -18.6578868747
 O        -8.1623787331        3.8018073580      -18.0062187277
 C        -9.8097400529        2.7608189207      -19.3353105898
 C       -10.4569303535        1.4142135281      -18.8836428175
 O        -9.7767871338        0.6876869337      -18.1088283618
 C       -11.8874550199        1.1196254869      -19.1949390010
 C       -12.1849498845       -0.0621315882      -20.1215997996
 C       -13.2483898216       -1.0282954418      -19.5979424236
 O       -13.0200598706       -1.5733267519      -18.5500289048
 C       -14.7223683834       -1.0893216089      -20.0730533984
 C       -15.2789915536        0.3783761119      -19.9670036688
 O       -14.5119152192        1.2030516080      -19.5476276058
 C       -16.7192515194        0.6821510123      -20.4181275301
 C       -14.7533131215       -1.6884601038      -21.5579055093
 C       -15.6817933241       -1.9522802731      -19.1318678580
 C       -10.5963904097        3.9958384302      -18.7765326550
 C        -9.7343060151        2.8945247645      -20.8434493475
 C        -4.4900261008       -0.8845328082      -16.9459335115
 C        -5.0406519826        0.0539806465      -14.7133578416
 C        -1.3733892070        4.1318530672      -19.6464417968
 C        -0.1628438740        4.5004550559      -17.4306973968
 C        -7.1347203110        7.2426067869      -16.7333238192
 C        -5.5432053900        9.2983275336      -17.0157070939
 C        -0.3258042648        8.3558676899      -11.3402734110
 C        -0.4245074801        6.7582014402      -13.1606136926
 C        -4.0368381307        3.4666151303       -6.9088909543
 C        -1.6827467953        3.0422477721       -6.1561475651
 C        -0.9504115886       -3.5680069756       -8.8659008871
 C        -3.2962743929       -3.6939408800       -8.2448877499
 C        -2.0070036900      -10.3320140471       -5.5041113675
 C        -2.5745257787       -9.0117145546       -3.5187553865
 C         2.6241653594      -14.0975442668       -2.0579845684
 C         0.1664007477      -14.3985466233       -1.2196808354
 C        -0.2741758673      -10.6827353297        4.3465252826
 C        -1.3657605772       -8.7929650791        3.0541738638
 C         2.9084706125       -4.9293949292        0.4511694744
 C         0.9997779157       -6.4357321574       -0.5269126328
 H         4.6526696092       -4.9485537665       -1.4253741696
 H         4.0948220208       -5.4053418899       -2.9205385322
 H         5.3764516741       -6.3756272260       -2.1376998120
 H         3.1381293539       -6.1057692963        2.8681306502
 H         3.3221911264       -7.6520438633        3.2165972396
 H         0.7232896731       -6.9221002742        2.1218294613
 H         1.1108601432       -6.4637949908        3.7785155165
 H         1.3717433953      -11.7131699056        2.9536933095
 H         2.3684985134      -10.8426713356        1.7917370514
 H         0.2502427164      -13.0859312140        1.1511360225
 H         1.8750676647      -13.3395483276        1.3793521687
 H         2.4566818190      -12.0348637850       -4.3067453077
 H         2.2921286180      -11.1152109733       -2.9197571140
 H         0.1423926151      -11.4249827702       -5.1015457826
 H         1.4376195984      -10.1594409617       -5.0592555602
 H        -2.3748330515       -6.6175835931       -5.0505354716
 H        -2.4613756043       -7.4003681653       -6.6129156926
 H        -0.8445739503       -6.1279969164       -7.5473925872
 H        -0.2113833081       -5.6188121689       -6.0116971675
 H        -3.4161483580       -0.8744499717       -8.2242616013
 H        -2.1067287745       -1.1375965059       -9.1623505149
 H        -0.9534830737        0.8442585327       -8.2828014796
 H        -1.5773486413        0.5707035617       -6.7426276569
 H        -3.5916366656        5.3971473123       -8.3941624028
 H        -3.3071036959        4.5243962190      -10.0200390075
 H        -0.9219314666        6.0346111056       -9.5408194990
 H        -2.3032806613        7.1314923254       -9.2257854151
 H        -4.1678537118        7.0883783030      -12.5186225691
 H        -3.0925773102        6.3913209076      -13.9002227389
 H        -3.5798203105        8.8014906349      -15.0744726090
 H        -5.1747050206        8.6995405544      -14.0087573101
 H        -3.3431916373        8.6408740012      -18.0234119458
 H        -4.0504842558        8.3698305015      -19.6333225271
 H        -1.5321871894        7.6430638868      -19.1651254643
 H        -2.6371288130        6.6613515404      -20.2214799379
 H        -2.2904772947        4.4430125329      -15.2664130496
 H        -1.4485603292        3.0240245421      -15.8673317249
 H        -4.4673166295        3.0352969211      -15.3601860126
 H        -3.2437110923        2.2705647978      -14.3995234943
 H        -7.6522833884       -0.0559870296      -17.9754429185
 H        -6.0998418395        0.0746303689      -18.6380102595
 H        -7.6265097347        1.3906844871      -20.0403822039
 H        -6.3281568210        2.2899745162      -19.3725853252
 H       -12.4202929586        2.0285656840      -19.3935621822
 H       -12.3297061324        0.8103847474      -18.1793830010
 H       -11.2255466327       -0.6681593499      -20.1794816248
 H       -12.4888711037        0.2839690863      -21.0848832627
 H       -17.5474210661        0.6241957262      -19.7490817600
 H       -17.1218127431       -0.0177966432      -21.2317521863
 H       -16.6430634250        1.6741475022      -20.7797844920
 H       -14.2856460738       -1.0228109956      -22.2717957588
 H       -15.7339797547       -1.8031048687      -21.9239700605
 H       -14.2442036356       -2.6924661993      -21.6982197134
 H       -15.8972418097       -1.3344401924      -18.2832242683
 H       -15.1819385092       -2.8882131063      -18.6655884040
 H       -16.6313589158       -2.3200831971      -19.6177329702
 H       -10.4264520434        4.2016753013      -17.6937577652
 H       -11.6233142978        3.8243759753      -18.9158695688
 H       -10.2179686056        4.9029846726      -19.2334130961
 H        -8.8872428607        2.2114982461      -21.1450027843
 H        -9.5408495335        3.9656621623      -21.0787360170
 H       -10.6607425375        2.5698849915      -21.2284008304
 H        -5.3497669989       -1.5207864686      -17.0761872726
 H        -3.6796423189       -1.3696217813      -16.4979022976
 H        -4.1044851884       -0.6263726611      -17.9081005882
 H        -4.1384261585       -0.1425850134      -14.2113112553
 H        -5.4935867670       -0.9308845675      -14.5860229488
 H        -5.6032962224        0.8374136153      -14.1883373484
 H        -1.6623688433        3.0284834020      -19.7000955240
 H        -0.2657217032        4.1778945563      -20.0558997561
 H        -2.0437704443        4.7231388300      -20.2294215845
 H         0.5773940621        5.1997715742      -17.8878330009
 H         0.2287737618        3.5068251388      -17.2369998027
 H        -0.3967749565        5.0066776861      -16.4112065522
 H        -7.3503513498        6.7034050697      -17.5736761622
 H        -7.8003044870        8.0583204193      -16.5448644938
 H        -7.4343636613        6.6298229285      -15.8481842227
 H        -4.9611517794        9.7532200794      -16.2693318262
 H        -6.5072362936        9.6090481203      -16.5333500364
 H        -5.4349365972        9.8040391368      -18.0281973904
 H         0.3774529709        7.7342151089      -10.8302805412
 H        -0.8359182841        8.9869523491      -10.6217747666
 H         0.1858615854        9.0642542556      -12.0428352799
 H        -1.0205358224        6.5123599416      -14.0560211355
 H        -0.1715097371        5.7203762330      -12.8967112064
 H         0.4853196467        7.3172537260      -13.3419999238
 H        -4.7836967334        3.4118682115       -7.6394607388
 H        -3.9624600952        4.4167846629       -6.4739349343
 H        -4.3722295774        2.7210393421       -6.1275510443
 H        -1.7469237507        3.9686385517       -5.5938302431
 H        -0.7368412993        2.8434461708       -6.4678768268
 H        -1.9870191662        2.3031898653       -5.4241958612
 H        -1.0388636493       -4.4275573946       -9.3945160680
 H         0.0747950343       -3.5807254855       -8.5997357028
 H        -1.1383565648       -2.7660084377       -9.5475868569
 H        -3.2681492414       -4.7470014180       -8.5805883684
 H        -3.6270275560       -3.2363948575       -9.2706478948
 H        -4.1629816710       -3.6164994032       -7.5459937300
 H        -2.0152419320      -11.4001828594       -5.1876068574
 H        -1.3439625736      -10.5445914873       -6.3151706503
 H        -2.9665512782      -10.1724772059       -5.7990089391
 H        -2.2156678454       -9.0997808447       -2.5105507866
 H        -3.4912905268       -9.5860001319       -3.5429733975
 H        -2.9212825728       -7.9536560036       -3.6341723172
 H         3.4532831311      -13.3451918407       -2.0774838634
 H         2.7304581635      -14.5292387406       -3.0972899023
 H         2.6985725389      -14.8250870794       -1.3114421290
 H        -0.2244555303      -15.0701799522       -2.0037778362
 H        -0.7108775794      -13.8309161366       -0.7801848615
 H         0.4753269406      -15.0685216469       -0.4279960625
 H        -1.0821110963      -11.4524632232        4.2485017807
 H        -0.5782760974      -10.0871787109        5.1985818485
 H         0.6335662274      -11.2144993739        4.6764055498
 H        -2.2751136923       -9.4387331923        3.0036503691
 H        -1.2215953109       -8.2541870932        2.0737975292
 H        -1.5084536464       -7.9962164593        3.8447898599
 H         2.7832129662       -4.0844332322       -0.2212482391
 H         3.9588985848       -5.0695824993        0.7770767063
 H         2.2154464956       -4.7026056471        1.2791931674
 H         0.2757888524       -6.2492781226        0.2621265766
 H         0.8586939634       -7.4396787435       -0.9253051375
 H         0.6715345174       -5.7338952728       -1.2628038042
 Na        1.7825077721       -9.4437540664       -0.9681379308
 Na       -5.9914263321        4.3087837579      -16.8008918618
