232

 C       -18.9154409850      -12.0953598062        0.9113813719
 C       -17.9936518115      -12.3456230181       -0.3191306265
 O       -17.9513380330      -11.5106117531       -1.1640514500
 C       -17.1561259440      -13.6651163047       -0.2571601951
 C       -15.7572786417      -13.2582649368       -0.7815022696
 O       -15.5665020400      -13.1804967380       -1.9645713149
 C       -14.6682060781      -12.8803942935        0.2562761437
 C       -13.3877191135      -12.3403976287       -0.4596843520
 C       -13.6298796779      -11.0764573120       -1.2929597972
 O       -14.6081482316      -10.3393159216       -1.0510517274
 C       -12.6368826036      -10.5782218876       -2.4315882190
 C       -13.5559256459      -10.6636427839       -3.7140981557
 O       -14.4329186952      -11.4802710747       -3.6813939575
 C       -13.3903329462       -9.7864161479       -4.9309042822
 C       -14.3738764105      -10.1069531354       -6.0832107408
 C       -15.8255278672       -9.5804226754       -5.9140430144
 O       -16.5442676299       -9.8121515785       -4.9049528860
 C       -16.3592761912       -8.5442637264       -6.9271804570
 C       -15.2908613171       -7.4146235085       -6.9490945476
 O       -14.5586556359       -7.2825375588       -5.9990725351
 C       -15.1740463755       -6.4172784805       -8.1650148707
 C       -14.0630973793       -6.5758991559       -9.2643623568
 C       -14.1675830342       -5.4295886975      -10.3058772924
 O       -15.1878977360       -5.1678336288      -10.8966829617
 C       -12.8184002915       -4.8391437284      -11.0006699860
 C       -12.2953064112       -3.8166322628       -9.8550702514
 O       -12.1718882010       -4.3000811809       -8.7642202965
 C       -11.9466195260       -2.3878773154      -10.1739696502
 C       -11.4284008538       -1.5647062992       -8.9715844472
 C       -10.3607705936       -0.5500328073       -9.4400254528
 O       -10.0465485747       -0.3163627724      -10.5692867037
 C        -9.6558972664        0.2650709859       -8.3541911696
 C        -8.1126108864        0.0769786347       -8.6781724932
 O        -7.5347418642       -0.8930352051       -8.2436504822
 C        -7.4220776537        1.0453661393       -9.7749126456
 C        -6.1013899246        0.5218723752      -10.3985997545
 C        -5.0732716259        1.6802946654      -10.9217327332
 O        -5.1123685040        2.8177177721      -10.4954424766
 C        -3.9270427954        1.3037081904      -11.8845766848
 C        -2.9412487973        0.5711521675      -10.8783902337
 O        -2.8765749716       -0.6286155686      -10.9073779270
 C        -2.1065856558        1.4159951518       -9.8526962966
 C        -0.6444519664        0.8623610357       -9.9039475230
 C         0.2338522913        1.4102133712       -8.6230767876
 O        -0.1938761225        2.2145858462       -7.8749185675
 C         1.5974675801        0.7319454645       -8.3306974366
 C         2.7443774522        1.7561131450       -8.5917635389
 O         3.3727714214        1.6722510782       -9.6441451838
 C         2.8539688623        2.8607806760       -7.5863921171
 C         4.0026903866        3.9540567896       -7.8101701972
 C         3.6631865220        4.6426036449       -9.2090109066
 O         2.6231269795        5.1586756032       -9.4032923044
 C         4.9285311669        4.9892715319      -10.2042345668
 C         4.2165054159        4.6111518971      -11.5488006907
 O         4.4329476904        3.4938109323      -12.0029492860
 C         3.1637150262        5.5030388902      -12.2755341001
 C         3.6564474320        6.7011116027      -13.2602220529
 C         4.0895836754        6.1474683680      -14.7360276984
 O         4.5215843339        5.0063768801      -14.7482741115
 C         3.9322989766        7.0979815364      -16.0932321997
 C         5.3170294271        7.1828646546      -16.9060796995
 O         5.3253065106        6.9123192763      -18.0491743223
 C         6.6071777053        7.8214180157      -16.0810061632
 C         7.9935271309        7.0361115666      -16.3724975753
 C         7.6991176613        5.5698205379      -16.1914037123
 O         7.5405050161        5.0777720150      -15.1244300543
 C         7.9018999820        4.6773219730      -17.4638299609
 C         9.3321196122        3.8987523153      -17.2170886526
 O         9.6822739780        3.7341768247      -16.0986828892
 C        10.0304601413        3.2416861308      -18.4977476108
 C        11.0454406957        2.1917692718      -18.0023024196
 C        10.4758582036        0.8592399650      -17.5867373183
 O         9.2554245217        0.7072144050      -17.8342510577
 C        11.2112479694       -0.2807129871      -16.9516107026
 C        10.6422177774       -0.5604144997      -15.4850972271
 O        11.4141626457       -0.6974948886      -14.5846187311
 C         9.1681400623       -0.5238327032      -15.1513507348
 C         8.9922678961       -0.0440524098      -13.7391752923
 C         7.6090996476        0.6575276705      -13.5118840106
 O         7.6063145790        1.8116978239      -13.1973862556
 C         6.2333813012       -0.1593875920      -13.3975876443
 C         5.5438476839        0.5071998702      -14.6242270638
 O         5.2997388942        1.6854572891      -14.6114860829
 C         4.9785064027       -0.2508714088      -15.8445455468
 C         6.1753801473       -1.7046423789      -13.5270146079
 C         5.4917614654        0.1429219109      -12.0360574411
 C        10.9348459075       -1.5626248184      -17.8376505218
 C        12.7058877428       -0.1687235401      -16.8303233174
 C         6.7375869131        3.4954572236      -17.3266543060
 C         7.7990858831        5.3020147847      -18.9378274167
 C         2.9982355207        6.4193582597      -16.9854149817
 C         3.4398311986        8.5061819502      -15.8027519357
 C         5.2919958886        6.4998196024      -10.1306856308
 C         6.2095592487        4.1302955194      -10.0340128224
 C         1.4921936361        0.3440068514       -6.8243545837
 C         2.0501822221       -0.5502561715       -9.0807596108
 C        -4.4587219884        0.2566601715      -13.0099470565
 C        -3.1632214417        2.4632132274      -12.6158846960
 C       -10.0078245268        1.8287666362       -8.3919906114
 C        -9.9240089379       -0.2455432380       -6.9853541479
 C       -11.6526049856       -5.7643434651      -11.1832118455
 C       -13.1142129020       -4.2250458862      -12.3674270180
 C       -16.5115983108       -9.3147698645       -8.3258859089
 C       -17.7930447942       -8.0623764983       -6.6221836917
 C       -12.1480490021       -9.2124189664       -2.0197367578
 C       -11.4636619572      -11.6131202790       -2.5552526693
 C       -17.0265865036      -14.2258761509        1.1267941978
 C       -17.9378338710      -14.6639908070       -1.2227001099
 H       -18.4005829090      -12.0169666497        1.8700661017
 H       -19.5870919632      -12.9436059965        0.9657019662
 H       -19.4412027418      -11.2089650622        0.6101122114
 H       -14.4037853719      -13.8321087466        0.7634911420
 H       -15.0446688368      -12.0939890693        0.9129922233
 H       -12.9262169260      -13.1498351168       -1.0640720712
 H       -12.6947487804      -12.1565863401        0.3602779532
 H       -12.3346375865       -9.9270224764       -5.1838662721
 H       -13.4525801244       -8.7274686754       -4.7520055122
 H       -14.1896307210      -11.1719195524       -6.2700635436
 H       -13.9252383818       -9.5009672591       -6.9489333944
 H       -14.8798571748       -5.4577078965       -7.6966345596
 H       -16.1620277960       -6.3020494270       -8.6288276300
 H       -14.2646166077       -7.4564380464       -9.8605652771
 H       -13.0693996159       -6.7067296932       -8.8248567455
 H       -12.8457166867       -1.7866996781      -10.5093396589
 H       -11.2082851919       -2.2420457367      -10.9366219517
 H       -11.0885909756       -2.1239529587       -8.1164563876
 H       -12.2501201362       -0.9538000486       -8.5513788197
 H        -7.4061492302        1.9929657326       -9.3244994470
 H        -8.1614901370        1.1185183904      -10.5209514825
 H        -6.4432031661       -0.1964795888      -11.1717125111
 H        -5.4403918953       -0.2099343035       -9.8367387440
 H        -2.6006853315        1.2288897270       -8.8561343259
 H        -2.2315136654        2.3589111569      -10.1347234415
 H         0.0039144492        0.9672773945      -10.8074348554
 H        -0.6935320975       -0.2000540386       -9.6524824597
 H         2.9100997667        2.4934654450       -6.5820746664
 H         1.9382195166        3.3554923058       -7.6327794524
 H         5.0584481470        3.6155089259       -7.7488482253
 H         3.6808559494        4.6920641752       -7.1021098551
 H         2.5077924087        5.9540493736      -11.5517842283
 H         2.5233219555        4.7772280463      -12.8420006544
 H         4.5693710936        7.2156488004      -12.8891515106
 H         2.8665938923        7.4740394971      -13.3796466991
 H         6.3099477166        7.6251371401      -15.0315407967
 H         6.7461584592        8.8851345251      -16.2335536436
 H         8.6908832105        7.2914549923      -15.5253941603
 H         8.5567652247        7.4821922706      -17.3315745003
 H        10.5039734188        4.0076493448      -19.0768101198
 H         9.3139064816        2.6863568489      -19.1483262444
 H        11.8412874967        2.5412652367      -17.2831921160
 H        11.7036254634        2.0018320043      -18.8876103217
 H         8.9450690000       -1.6006090174      -15.1722210618
 H         8.5487719698        0.0799411191      -15.7379381561
 H         9.6938219123        0.7250703042      -13.5604646652
 H         9.1105374802       -0.9359345555      -13.0549147081
 H         5.6235617178       -0.4543959583      -16.6278191572
 H         4.3202145119        0.5152238584      -16.2496620597
 H         4.4624436575       -1.2182692032      -15.6567780580
 H         5.1305081424       -2.0264894952      -13.5134787047
 H         6.7892364665       -2.2278432063      -12.7844185328
 H         6.6012884530       -2.0097464433      -14.4912999979
 H         6.1546291543       -0.0514260525      -11.2369549458
 H         4.5163940007       -0.2218768740      -11.8250370658
 H         5.2993852414        1.1233534637      -11.9385227927
 H        11.3388553817       -1.3886752005      -18.8030316594
 H         9.8849352288       -1.6514940442      -17.7035752948
 H        11.3925197637       -2.4843176114      -17.4131211987
 H        13.1439956554       -0.1162087625      -17.8151513386
 H        13.0552577372       -0.9748687968      -16.2273017501
 H        13.0192436170        0.6908518346      -16.2391621380
 H         6.5713913138        3.1620888776      -16.3442064531
 H         7.0150869478        2.5809229717      -17.9621832945
 H         5.7828250976        3.9140676182      -17.6454339006
 H         8.6704622621        5.9726452508      -19.1439843002
 H         6.7711582456        5.6950304308      -19.2746624368
 H         7.8162693996        4.4763224799      -19.6591493587
 H         1.9715677065        6.5469575839      -16.6593219189
 H         3.0283869697        5.3052660630      -17.1351434790
 H         3.1271308116        6.9716654958      -17.9231656096
 H         3.1260791789        8.9761649318      -16.7030983052
 H         4.1941875405        9.1104717671      -15.2816104821
 H         2.4265470406        8.5208741092      -15.3053635083
 H         5.6312563736        6.8380578702       -9.1232628847
 H         4.5933555170        7.3092400344      -10.3970599874
 H         6.0638981854        6.7813492934      -10.8481916392
 H         6.7524356847        4.0073313268      -11.0595468467
 H         6.0348198866        3.1441160336       -9.6473343519
 H         6.8126919664        4.6263855442       -9.2312476222
 H         1.0713254480        1.1827501561       -6.3601274230
 H         2.4388911044        0.1250882547       -6.3985172891
 H         0.7755613560       -0.3929230036       -6.6872288988
 H         1.2172468664       -1.2760680280       -9.2219970214
 H         2.6870524503       -1.1864896558       -8.5068466848
 H         2.4781660630       -0.3377833663      -10.0751184314
 H        -4.5873442553       -0.7857693561      -12.6077880557
 H        -3.6515946358        0.1771498240      -13.8280707811
 H        -5.2692107816        0.4602768999      -13.6468339276
 H        -2.3453132608        2.1146049359      -13.2683182592
 H        -2.7766906034        3.1447912640      -11.8801264611
 H        -3.8238319153        3.1244924897      -13.1639562980
 H       -10.8481945700        2.0489102294       -7.8259128141
 H        -9.9688187700        2.1708800694       -9.4330224045
 H        -9.1131237698        2.3532014431       -7.9828237277
 H       -10.9780043334       -0.6010863716       -6.7830585993
 H        -9.7598402050        0.4749930945       -6.1915613799
 H        -9.3212262941       -1.1074900015       -6.7149965511
 H       -10.8826255998       -5.1993702859      -11.6178190265
 H       -11.9900182834       -6.5541992460      -11.8454796737
 H       -11.4257711162       -6.1539508766      -10.2368740604
 H       -13.1270296258       -5.0834693430      -13.0756266892
 H       -12.4197722759       -3.4045965092      -12.6540306295
 H       -14.1329152503       -3.9387921961      -12.3816953025
 H       -15.6239176758       -9.7925114569       -8.6585677693
 H       -17.1196927121       -8.7007629412       -8.9480029142
 H       -17.2202855633      -10.1453238931       -8.0147252842
 H       -17.8734685690       -7.5893675421       -5.6819693869
 H       -18.3516876613       -8.9596953316       -6.7664990338
 H       -18.0716592530       -7.4310984698       -7.4567853903
 H       -13.1128893263       -8.6928982506       -1.7146800476
 H       -11.5497794826       -8.6822473447       -2.7521074904
 H       -11.6853242228       -9.3950992214       -1.0675570437
 H       -11.6994374171      -12.6964072148       -2.6385196558
 H       -10.8620165873      -11.6005117627       -1.6498886750
 H       -10.6598980697      -11.3560341145       -3.3814539753
 H       -16.6183016330      -13.4016755728        1.8147451814
 H       -16.2367024391      -15.0395346601        1.0174765033
 H       -17.9313034935      -14.6764701442        1.5568872278
 H       -17.2603201448      -15.4133739385       -1.6235631245
 H       -18.4878264416      -14.2335988238       -2.0627177351
 H       -18.7309223710      -15.1704106623       -0.5864998454
 Na      -16.2927743422      -10.8496665627       -2.6377254542
 Na        6.0601903277        3.6378634676      -13.6677944601
