232

 C         4.5509022536       -5.7844977910       -1.9699153794
 C         3.5386302074       -6.6610413826       -1.3319713158
 O         3.3254252627       -7.7704667797       -1.8161674080
 C         2.7249312602       -6.3094350921       -0.0657301486
 C         2.9151481580       -7.3798141167        1.0522005405
 O         2.9024668103       -8.5556536554        0.7276071042
 C         2.8325910458       -6.9755497559        2.4790916432
 C         1.4081226259       -7.1649658188        3.1736322930
 C         1.2614971937       -8.5760903858        3.7384376333
 O         2.0625619523       -9.1572465278        4.3952823528
 C        -0.0781952827       -9.4261628425        3.2169037327
 C         0.5601127932      -10.1142466054        1.8962842634
 O         0.2415704480       -9.5734150660        0.8558807430
 C         1.6304665774      -11.2211979112        1.7424191151
 C         1.0799361995      -12.3576534015        0.9692024468
 C         1.5790087003      -12.4787093653       -0.4554218595
 O         2.2234563584      -11.5058280183       -0.9478323650
 C         1.2828083268      -13.6044059187       -1.4610312951
 C         0.7277566773      -12.7414718436       -2.7689257022
 O        -0.2728793275      -13.2150886613       -3.2307249936
 C         1.5237549858      -11.5728964556       -3.4427618132
 C         0.7873499165      -10.8006006738       -4.5981471061
 C        -0.1596804720       -9.7809926175       -3.9236372478
 O         0.1000996206       -9.3329886081       -2.8330142436
 C        -1.3554151836       -9.3133845963       -4.7116046380
 C        -1.0016428168       -8.0652318088       -5.6096997882
 O         0.2042772547       -7.8959094528       -5.8393392381
 C        -1.8982126336       -7.0387403024       -6.0945569586
 C        -1.1426319682       -5.8903711027       -6.8588447657
 C        -1.9233268381       -4.6601082776       -6.5705042866
 O        -2.3923492940       -4.5701439487       -5.4318624609
 C        -2.0895995400       -3.4755538250       -7.6255064238
 C        -2.0698462631       -1.9850920497       -7.0126077131
 O        -1.7331350503       -1.7480798492       -5.8994443565
 C        -2.4803081086       -0.9274460777       -8.0106236505
 C        -1.7354593908        0.4016358485       -7.6943372838
 C        -2.7192827654        1.5944433660       -7.8454844382
 O        -3.7996981580        1.2881190730       -8.2716883597
 C        -2.4832930499        3.0161665074       -7.1908124978
 C        -1.8916146258        4.1181628825       -8.2322826974
 O        -0.7635262408        4.0635505119       -8.5943212405
 C        -2.8023682782        5.2953258638       -8.8230923762
 C        -1.9856838223        6.3370151773       -9.6385979593
 C        -1.9313244007        6.2493807958      -11.1555845924
 O        -2.2829295656        5.2359576970      -11.6986281796
 C        -1.2841072384        7.4209258757      -11.9793616444
 C        -2.3449938369        8.1997686183      -12.8337114830
 O        -2.3685020397        9.4127539266      -12.7808704292
 C        -3.3780198542        7.3487123980      -13.6543955897
 C        -4.2853819511        8.0715301330      -14.5636917871
 C        -4.9927463342        7.1348116569      -15.5840455855
 O        -5.0023726354        5.9176046735      -15.4472357259
 C        -5.6538682127        7.7643816343      -16.9524975212
 C        -4.7602674201        7.1300229848      -18.0043875264
 O        -5.0178976359        5.9842227525      -18.2986134858
 C        -3.7113111896        7.8914619311      -18.8055930661
 C        -2.7055900687        6.7892988842      -19.1871338634
 C        -2.1917133401        5.9951721683      -17.9734671445
 O        -2.2746188461        6.5896008727      -16.8866105020
 C        -1.6286960292        4.5310462511      -18.1798928352
 C        -2.7794890495        3.8353710445      -17.2886212875
 O        -3.7989423661        3.6683820129      -17.9131281580
 C        -2.4797813982        3.3938835375      -15.8818660374
 C        -3.6629163259        2.5271690741      -15.2962153542
 C        -3.6413876062        1.1628400068      -16.1993843100
 O        -2.7178543349        0.8909763002      -16.8873269557
 C        -4.9741383039        0.2993510674      -16.2049428427
 C        -6.2551436187        1.1367915163      -16.7147254659
 O        -6.5456590203        2.1988950829      -16.2184825290
 C        -7.0326615931        0.5923851911      -17.9350521322
 C        -7.3144466295        1.6475339344      -19.0706392938
 C        -8.3773396416        2.7858054483      -18.6115219423
 O        -7.9794640701        3.7428142663      -17.9196334725
 C        -9.7628670565        2.6721790568      -19.1796988062
 C       -10.4479529600        1.2946807629      -18.7895252277
 O        -9.9846508913        0.3717333723      -18.1863473454
 C       -11.9364125441        1.1928374950      -19.0856101150
 C       -12.1779985242       -0.0274215271      -20.0756456717
 C       -13.2688205071       -1.1518517128      -19.5805608772
 O       -12.9072552931       -1.9767291623      -18.7866713932
 C       -14.7091588155       -1.1140613579      -20.1481552202
 C       -15.2654159445        0.5515467554      -19.9750517942
 O       -14.5372128996        1.4240658025      -19.4874753882
 C       -16.5965811159        0.9444422484      -20.6119378306
 C       -14.7855658044       -1.5289477204      -21.6691224834
 C       -15.6660991658       -1.9222577667      -19.2493202888
 C       -10.6625819281        3.8929323444      -18.7072124941
 C        -9.6287732056        2.6068545036      -20.6805086445
 C        -4.5936898054       -0.9480266873      -17.0408496074
 C        -5.2295696737       -0.1381923753      -14.6942462315
 C        -1.6121350830        3.9798171801      -19.5502206733
 C        -0.1389239530        4.4385212888      -17.6610071924
 C        -7.1096578547        7.2624454261      -16.9169357789
 C        -5.6248928846        9.3092905006      -16.9843491821
 C        -0.6513569743        8.4697247126      -11.0345610125
 C        -0.3350377784        6.8327955192      -13.1384203378
 C        -3.8203545083        3.4879253510       -6.6601813430
 C        -1.4500911659        2.8777257727       -6.0551943473
 C        -1.0125899563       -3.5616402029       -8.5857335170
 C        -3.5069256066       -3.7148164753       -8.2336122611
 C        -1.9201854058      -10.3609572792       -5.7436127100
 C        -2.5082980876       -9.0038197856       -3.7619239222
 C         2.5370735816      -14.3802772251       -1.8399189889
 C         0.2567236658      -14.6568748006       -1.0334553107
 C        -0.3616642541      -10.6141745474        4.2639132475
 C        -1.2809717981       -8.6362122023        2.7884527397
 C         3.1107971498       -4.8676072402        0.5614916468
 C         1.1844484168       -6.1426030828       -0.3152502115
 H         4.4753773036       -4.7423616060       -1.5535983983
 H         4.3438265499       -5.6602902847       -3.0839183014
 H         5.5508130932       -6.1128736398       -1.9300614421
 H         3.2114426039       -5.9045687146        2.5742842920
 H         3.5700481179       -7.4562359217        3.2521094835
 H         0.7048131311       -6.9403402657        2.3816917418
 H         1.3562689149       -6.3868682676        3.9530588670
 H         2.0863697345      -11.5770741077        2.6982643899
 H         2.4276188969      -10.7998767328        1.1475360753
 H         0.0142549458      -12.3308343115        0.8089498778
 H         1.1800283503      -13.3423364226        1.4579361316
 H         2.4182248864      -12.0640898991       -3.7320563254
 H         1.9669096272      -10.7843735294       -2.8705342576
 H         0.2794670096      -11.4902133111       -5.2132110581
 H         1.4862389791      -10.2174014433       -5.1824119119
 H        -2.3604543926       -6.4420305272       -5.2640493885
 H        -2.6984310981       -7.2603560514       -6.7002232931
 H        -1.2029613824       -6.1732189563       -7.9494806320
 H        -0.1459418568       -5.8068827953       -6.4618966099
 H        -3.4959739931       -0.5823550827       -8.0872963013
 H        -2.3711753619       -1.2342266379       -8.9932895686
 H        -0.8022202290        0.5031380634       -8.3529431257
 H        -1.3616068922        0.2356046447       -6.5987620014
 H        -3.2899510043        5.8231796256       -8.0661105100
 H        -3.5143049906        4.7935148268       -9.5029938219
 H        -1.0598398556        6.2732479263       -9.1276947527
 H        -2.4691927721        7.3508058911       -9.4830353802
 H        -4.0019871471        6.9957813030      -12.8603427231
 H        -2.7714753430        6.6238676492      -14.1891422160
 H        -3.8939862372        8.8090091687      -15.2217309250
 H        -5.1438342796        8.4368492674      -14.0838433003
 H        -3.1558594459        8.6162675122      -18.1406147004
 H        -4.0954754801        8.4401682375      -19.6554090736
 H        -1.7844189550        7.2576777367      -19.6337545884
 H        -3.1606711276        6.0479115021      -19.8568995712
 H        -2.2878835393        4.2816439247      -15.2180165409
 H        -1.5546625876        2.7761096994      -15.9265924932
 H        -4.6361261985        3.0617028002      -15.4192208441
 H        -3.4161932237        2.4494185584      -14.1791235911
 H        -8.0760395449        0.2918951273      -17.6994843788
 H        -6.6013644354       -0.3176121497      -18.4951529185
 H        -7.5884954645        1.2243491879      -19.9746764891
 H        -6.4521490938        2.2481329433      -19.2866917764
 H       -12.2910755948        2.1066846777      -19.5695180662
 H       -12.4697930606        1.2142403498      -18.1637022098
 H       -11.2873720649       -0.5693579766      -20.0744665702
 H       -12.4594041592        0.4202682632      -21.0481189569
 H       -17.4765533983        0.4526273857      -20.1545410581
 H       -16.6811520473        0.4462969676      -21.5494058857
 H       -16.7514283662        2.0764030006      -20.6313117444
 H       -13.7549706512       -1.6028688815      -22.1093455005
 H       -15.4288064377       -0.8778927440      -22.4073608586
 H       -15.2186627148       -2.5135301286      -21.8067991671
 H       -15.6543179986       -1.4693552412      -18.2250775462
 H       -15.3281949488       -2.9141737344      -19.0637797412
 H       -16.6874887358       -1.9887702615      -19.6482389573
 H       -11.1708949091        3.7069082578      -17.8174805019
 H       -11.3679796549        4.0695489369      -19.5480905854
 H       -10.0633401934        4.7688002008      -18.4849377583
 H        -9.0282401645        1.7806391412      -20.9579298060
 H        -9.1646739821        3.5555445309      -20.9742206341
 H       -10.7276118617        2.5136087294      -21.0116822894
 H        -5.3347361805       -1.7275588879      -16.9406999365
 H        -3.5856584874       -1.2933662706      -16.6869646897
 H        -4.4477390896       -0.7692009895      -18.1205029569
 H        -4.7560885646       -1.1491676095      -14.4291826329
 H        -6.2263985980       -0.4353322531      -14.4410970557
 H        -4.8215939869        0.6121526612      -14.0291652170
 H        -0.8737699975        3.2235717208      -19.6557835790
 H        -1.4318101467        4.7280508101      -20.2736738701
 H        -2.6484627971        3.5408117740      -19.6472979880
 H         0.5016040295        4.5105014434      -18.5517134788
 H        -0.0162616502        3.4316985820      -17.1971879402
 H         0.1796811684        5.1262562511      -16.9406876461
 H        -7.2525266616        6.3194299835      -17.5263215412
 H        -7.8487146289        8.0041239241      -17.1395010622
 H        -7.3754558127        7.2035307227      -15.9151600984
 H        -4.5938938723        9.7214029242      -16.9673502168
 H        -6.1350675154        9.8872584649      -16.2773833640
 H        -6.0381221827        9.4061926109      -17.9578580891
 H         0.3813611909        8.2483889270      -10.7409092554
 H        -1.2605926683        8.5564070443      -10.1137175784
 H        -0.6172664032        9.3917945929      -11.5807961876
 H        -0.8029106999        6.8358689702      -14.0995687549
 H        -0.0986746412        5.7828101566      -13.0323100790
 H         0.5640116475        7.4140807399      -13.0478687715
 H        -4.6177310939        3.5494192992       -7.5045486838
 H        -3.7385704793        4.5181105560       -6.1708391469
 H        -4.1812311836        2.7486229652       -5.9753239272
 H        -1.5382874272        3.8005597790       -5.5397878488
 H        -0.3856414377        2.6091721987       -6.3695245333
 H        -1.8500019213        2.2130277698       -5.2993166922
 H        -0.8334863180       -4.6666171016       -8.9543994847
 H        -0.0029403698       -3.5346358554       -8.0856841681
 H        -1.1076502016       -2.8577311793       -9.4796610405
 H        -3.9043623197       -4.7079834140       -8.3575068701
 H        -3.4439780934       -3.4309462293       -9.1875738460
 H        -4.2982777724       -3.1954334606       -7.7531841568
 H        -2.2320522461      -11.3464211135       -5.4525371212
 H        -1.2407401982      -10.7012575686       -6.5346677703
 H        -2.8485288960       -9.9040914431       -6.2467517018
 H        -2.1233465510       -8.4902304245       -2.8652965217
 H        -2.9772969200       -9.8806730841       -3.3587884478
 H        -3.2946035823       -8.4734236792       -4.2060038874
 H         3.1730219870      -13.7194043015       -2.3743391023
 H         2.3071506403      -15.1008383676       -2.5681820536
 H         3.0061897893      -14.9156676397       -0.9789629354
 H        -0.1455803757      -15.2041217165       -1.8754259463
 H        -0.5369042639      -14.2424058890       -0.4814704765
 H         0.6411940114      -15.4496498039       -0.4171290516
 H        -0.3297162638      -11.4931748134        3.7120575581
 H        -1.3298237395      -10.5314986795        4.7418551471
 H         0.3623594522      -10.8282930673        4.9960568342
 H        -1.8560854232       -9.2598493029        2.1055172052
 H        -1.0727770503       -7.7359901389        2.2474359098
 H        -1.8839558925       -8.4296648471        3.6433060009
 H         3.1198798162       -4.1196643713       -0.2367969603
 H         4.0816014627       -4.9349291782        1.0054382994
 H         2.3346812487       -4.5267666017        1.2547354531
 H         0.6884732844       -5.5469005191        0.4343040718
 H         0.7038909269       -7.1237492848       -0.2944699310
 H         0.9070253612       -5.6486388223       -1.2356639970
 Na        1.5906773887       -9.1588601380       -1.1490832306
 Na       -6.0730437894        4.4045069275      -17.0405305405
