232

 C         4.6343903214       -5.7247363741       -1.9337274645
 C         3.5770429875       -6.6194231288       -1.3522765056
 O         3.3131206891       -7.6987321886       -1.7825997617
 C         2.7810187326       -6.1403392850       -0.0332067287
 C         2.8698636623       -7.2998429939        1.1310459299
 O         2.8805582950       -8.4281889150        0.7483725624
 C         3.0022567492       -6.9347091535        2.6019389584
 C         1.5624926133       -7.1380765996        3.2754728022
 C         1.2594907658       -8.6306184143        3.6326024670
 O         2.0877845637       -9.1764792150        4.3107877035
 C        -0.0181828478       -9.5806893325        3.0939506190
 C         0.6534431565      -10.0233467455        1.7944437426
 O         0.2767347681       -9.5202245143        0.7225978523
 C         1.6017344679      -11.1843237051        1.7796718813
 C         0.9140207842      -12.3013584609        0.9590566559
 C         1.5801403842      -12.4091552252       -0.4403038875
 O         2.2995942110      -11.5003215113       -0.8143634764
 C         1.2948515350      -13.5982452824       -1.4741352796
 C         0.7001613648      -12.8880014347       -2.8102223582
 O        -0.3652782366      -13.2004824382       -3.2480825607
 C         1.5607631036      -11.8317777078       -3.5112666739
 C         0.7844309977      -10.9738413395       -4.5373608556
 C        -0.1549130091       -9.8728153991       -4.0041507485
 O         0.0248641350       -9.4141696273       -2.8910675760
 C        -1.3942249313       -9.3237499786       -4.8968555122
 C        -0.8682816768       -8.0478681566       -5.7174371840
 O         0.3340580885       -7.9536767227       -5.9943353321
 C        -2.0372647032       -7.2262096210       -6.1978389622
 C        -1.4561685717       -5.9789669456       -6.9982450083
 C        -2.0386179538       -4.5987109178       -6.4740514682
 O        -2.3649024005       -4.4769579466       -5.3099327483
 C        -2.1854248465       -3.5121218707       -7.6320747176
 C        -2.0626492005       -2.0638625116       -7.0342818833
 O        -1.5124811027       -1.7988185574       -5.9680812908
 C        -2.4268196023       -0.9501691837       -8.0464254302
 C        -1.7876165980        0.4301095910       -7.7482162942
 C        -2.7152094409        1.6079589870       -7.8119666192
 O        -3.7919705409        1.5568798497       -8.3457106568
 C        -2.3805046413        3.1175806633       -7.1173733033
 C        -1.8500699764        4.1543440450       -8.2331892630
 O        -0.6941620177        4.0743291344       -8.5441783259
 C        -2.7928708404        5.2628507512       -8.7346762379
 C        -2.0389250705        6.4019816339       -9.5568523449
 C        -1.9623784051        6.2070778210      -11.0826234018
 O        -2.2276629699        5.2048414830      -11.7582675828
 C        -1.2419147485        7.4799278904      -11.8685208628
 C        -2.4391167952        8.1823512962      -12.7236819054
 O        -2.5345563405        9.3812623830      -12.6903398824
 C        -3.3146966163        7.2265218419      -13.6022008203
 C        -4.2078221137        8.0538208014      -14.5621409237
 C        -5.0128979488        7.1921292359      -15.5591074421
 O        -5.1181477716        5.9769500387      -15.4069961658
 C        -5.7071518146        7.8021009039      -16.8914374499
 C        -4.8771927279        7.1664497934      -18.1051210552
 O        -5.0770095785        5.9985136647      -18.3956024218
 C        -3.7455935927        7.8604039561      -18.7978523812
 C        -2.7828680737        6.6785089912      -19.2979690868
 C        -2.1536599664        6.0319288822      -17.9407735132
 O        -2.1696176932        6.6014007198      -16.8921226768
 C        -1.7062921355        4.5040712374      -18.1663349591
 C        -2.7898538566        3.7717250959      -17.3202811011
 O        -3.8968444673        3.6051040342      -17.8236594894
 C        -2.5638254901        3.3931322750      -15.8314090867
 C        -3.6571257331        2.4237051879      -15.3705375875
 C        -3.7029243277        1.1292423009      -16.1722966637
 O        -2.7397028739        0.7919218797      -16.7812031557
 C        -5.0047400739        0.2847099964      -16.1186357455
 C        -6.1341781917        1.1556915742      -16.7804607426
 O        -6.3262206584        2.2481529461      -16.2250983328
 C        -7.0944609050        0.6844385860      -17.8056599462
 C        -7.2402122926        1.6657905904      -18.9614976809
 C        -8.2882984488        2.7194223824      -18.6082095609
 O        -8.0758840416        3.7324166920      -17.9712895845
 C        -9.7754218974        2.5333082161      -19.1454677881
 C       -10.5719746062        1.2441596602      -18.6554189608
 O        -9.8839302548        0.2813539260      -18.2342247902
 C       -12.0131589335        1.0969965391      -19.1627858997
 C       -12.1540588926       -0.1106489656      -20.0721561474
 C       -13.2578303692       -1.0259027975      -19.5853168523
 O       -12.9820407394       -2.0725876368      -19.0797359953
 C       -14.7556971294       -0.8341233836      -20.0847007010
 C       -15.3000026384        0.5287611154      -20.0682031853
 O       -14.6807997778        1.3727755379      -19.4663184828
 C       -16.6047473234        0.9201995061      -20.7233324732
 C       -14.6094906634       -1.3212696148      -21.5399276258
 C       -15.6780976312       -1.8088415134      -19.2257910416
 C       -10.6082841229        3.7592992894      -18.6228311000
 C        -9.6752695674        2.4877657812      -20.7151152231
 C        -4.8145165390       -0.9521894319      -17.0034710098
 C        -5.4404380792       -0.2497176184      -14.7365925821
 C        -1.8224764052        3.9879139746      -19.5694998933
 C        -0.2372333283        4.4631707177      -17.6328826532
 C        -7.1965344465        7.2822291963      -17.1094532328
 C        -5.6167978369        9.3554052753      -16.8816564369
 C        -0.5866280884        8.4801821565      -10.9291812763
 C        -0.2371839159        6.8891653349      -12.8454009467
 C        -3.6995587573        3.5906663803       -6.5521875377
 C        -1.3125783632        3.0005920305       -5.9915081221
 C        -0.9077673445       -3.6120595745       -8.5414976065
 C        -3.5689051897       -3.7280914936       -8.2008715244
 C        -1.9210475038      -10.3235008359       -5.8860074022
 C        -2.5688378591       -8.8973822881       -3.9409626116
 C         2.6217290715      -14.3863871518       -1.7774181371
 C         0.3001429816      -14.6136469363       -0.8245664662
 C        -0.3608760166      -10.6152485756        4.1701384534
 C        -1.2211068627       -8.6327726374        2.8351642726
 C         3.3450987717       -4.7298783319        0.5027990510
 C         1.2753126567       -6.1034979208       -0.3796649986
 H         4.6443582269       -4.7030106280       -1.7013988395
 H         4.6175832664       -5.8371669237       -3.0206000085
 H         5.6161959135       -6.1802166052       -1.7228816364
 H         3.4209612054       -5.9692148868        2.8065996881
 H         3.6507415077       -7.5855064449        3.1912749279
 H         0.8420436050       -6.5447788736        2.6548186494
 H         1.6827170640       -6.6921328227        4.2365400674
 H         1.7779628089      -11.5238002926        2.8369062502
 H         2.4900131650      -10.9414742107        1.3286801296
 H        -0.2008757792      -12.2036455352        0.7760699858
 H         0.9512278231      -13.3444979428        1.4074064142
 H         2.4623250623      -12.3150358746       -3.8822543672
 H         2.0244325165      -11.0827919484       -2.8503589840
 H         0.2573208606      -11.6289039235       -5.2093583442
 H         1.4895383619      -10.3478020280       -5.1194130885
 H        -2.6088280108       -6.7247430067       -5.4370385998
 H        -2.7674719769       -7.8821281145       -6.7975464095
 H        -1.5703331463       -6.1563134120       -8.0897410127
 H        -0.3808843664       -6.0489325658       -6.6567937205
 H        -3.4799482656       -0.6324843047       -8.0588128967
 H        -2.2978769301       -1.2625095996       -9.0727939625
 H        -0.8667914505        0.6389104647       -8.3406999511
 H        -1.4661812412        0.2738481932       -6.6881123464
 H        -3.1801737309        5.7609606098       -7.7710729382
 H        -3.5647989873        4.8264876152       -9.2441712966
 H        -1.0492817160        6.2051162537       -9.1229495961
 H        -2.3751916088        7.4531408640       -9.3606204278
 H        -3.9139754947        6.6234548891      -12.9019923955
 H        -2.5799482225        6.7562635071      -14.2165144837
 H        -3.6271330291        8.6386320295      -15.2572778233
 H        -4.9946744706        8.6473233438      -14.2150651359
 H        -3.1972223800        8.6064402643      -18.1797942971
 H        -4.1760358555        8.3939402456      -19.5848891124
 H        -1.9824055710        7.0232904916      -19.9133127808
 H        -3.3593664596        5.9249181832      -19.7890856772
 H        -2.6203955978        4.2708491847      -15.1601538480
 H        -1.5620054010        2.8708906907      -15.6979018858
 H        -4.6552296484        2.9673317776      -15.4018000564
 H        -3.4166790920        2.2550159858      -14.3227744492
 H        -8.0893201957        0.5618406941      -17.2940066601
 H        -6.9193143507       -0.2781003277      -18.3874841621
 H        -7.7297095976        1.1893591984      -19.8101075521
 H        -6.3074925463        2.1289368915      -19.2795826874
 H       -12.2983183770        1.9635371333      -19.6326931155
 H       -12.6992988993        1.0900134592      -18.2582601942
 H       -11.2412708325       -0.7029378497      -19.9473575827
 H       -12.3719813041        0.2110034992      -21.0844214164
 H       -17.4026065625        0.3324878011      -20.4751950724
 H       -16.6070542644        0.6472983824      -21.8237977024
 H       -16.8044317835        1.9342170476      -20.4869242697
 H       -13.6036490240       -1.6392048784      -21.7060070183
 H       -14.9477611133       -0.7272442875      -22.3837616234
 H       -15.2079673565       -2.2292912924      -21.6388521011
 H       -15.5764832736       -1.8186361224      -18.2186700281
 H       -15.3606739284       -2.8066836475      -19.5538986112
 H       -16.6865015636       -1.7087323856      -19.5464553737
 H       -11.2758225328        3.4066707972      -17.8292872194
 H       -11.1084565439        4.3125479459      -19.4258789158
 H        -9.9192652682        4.4369862783      -18.0193846599
 H        -9.4258671074        1.4916692836      -21.0159346419
 H        -8.8899276839        3.1797404392      -21.0282476764
 H       -10.6462907293        2.7422451654      -20.9904251571
 H        -5.7168059382       -1.5744229727      -16.9434652488
 H        -3.9182014473       -1.5491876697      -16.7200019485
 H        -4.6861167715       -0.7014246652      -18.0844729315
 H        -5.1389296603       -1.2775678227      -14.4610543499
 H        -6.5115110279       -0.4326285366      -14.7199707508
 H        -5.1291752310        0.4181430682      -13.9336811580
 H        -0.9601853931        3.4355590120      -19.7820550285
 H        -1.8521268394        4.8081909080      -20.2669627167
 H        -2.6025893144        3.3883406936      -19.6236507244
 H         0.3812062738        4.8069029268      -18.4465287693
 H        -0.0052264466        3.4977322110      -17.4099857789
 H        -0.0406928060        5.0010281141      -16.7177064967
 H        -7.1374284120        6.2892441113      -17.5474027530
 H        -7.6430160778        7.9564204675      -17.8876597237
 H        -7.9735051180        7.5046734866      -16.3016340071
 H        -4.7120216579        9.6524374442      -17.2792676022
 H        -5.7225271134        9.8819448501      -15.9459329751
 H        -6.4279980157        9.6291597919      -17.6120203503
 H         0.2869146525        8.0350584997      -10.4956438088
 H        -1.2429494785        8.7488923981      -10.0978908958
 H        -0.1661508323        9.3395518382      -11.5437429465
 H        -0.6667658427        6.9182500466      -13.8526987222
 H        -0.0091414263        5.8408366097      -12.7197117349
 H         0.6462475307        7.4386916669      -12.7544374773
 H        -4.4743160783        3.7569505067       -7.3105735052
 H        -3.5034503588        4.5390600925       -6.1136382652
 H        -4.1096535830        2.8817511774       -5.7731033198
 H        -1.0491146773        3.9924553579       -5.5048361429
 H        -0.4683008018        2.4875678678       -6.4606422233
 H        -1.7531796049        2.4029348997       -5.0939354415
 H        -0.6345196724       -4.5259384756       -9.0169879710
 H        -0.0283240434       -3.5587420396       -7.8792201559
 H        -0.9003418989       -2.7476068671       -9.2892264102
 H        -3.8417961086       -4.6958800710       -8.4514992520
 H        -3.6065607544       -3.2239008839       -9.1773693384
 H        -4.3491448857       -3.4296477823       -7.5601461893
 H        -2.1571971240      -11.3889747964       -5.6227192920
 H        -1.1697865998      -10.5363267975       -6.6604427081
 H        -2.7683581235       -9.9970382815       -6.4151848008
 H        -2.2950280066       -7.9383370671       -3.4670699940
 H        -2.6959032372       -9.5206917225       -3.0894933314
 H        -3.5561599052       -8.8540117754       -4.3938301769
 H         3.3067183542      -13.8386659733       -2.4671407356
 H         2.3103378384      -15.2610394357       -2.3698955026
 H         3.0924526055      -14.7491644014       -0.9299489768
 H        -0.0422458809      -15.3211765128       -1.6054155850
 H        -0.5939055580      -14.1144639817       -0.4227892446
 H         0.6222734249      -15.2383069131       -0.0830520862
 H        -0.2423935037      -11.6107667920        3.7862231188
 H        -1.3946475644      -10.4253787469        4.4615451306
 H         0.2489941379      -10.7215614833        5.0857421000
 H        -1.8913614565       -9.1301738516        2.1705605536
 H        -0.9530369324       -7.7494504115        2.3460210612
 H        -1.7150038037       -8.4570408012        3.7535882453
 H         2.9697959788       -3.9620778410       -0.1395878862
 H         4.4106326773       -4.7310150677        0.4320270764
 H         3.0398564464       -4.5484979725        1.5351776196
 H         0.5406842994       -5.6758592298        0.3461709172
 H         0.8974691355       -7.1405214113       -0.6260161159
 H         1.1453803317       -5.4954789624       -1.2626738285
 Na        1.4760347726       -9.1394732354       -1.2140147386
 Na       -5.9188002810        4.3742039001      -17.0951214534
