232

 C         4.7007982888       -5.7515141316       -1.8998735183
 C         3.6317623886       -6.5990340071       -1.2430658177
 O         3.2247425628       -7.6022617256       -1.8238134469
 C         2.8675697148       -6.0348023329        0.0014785545
 C         2.9565798002       -7.1661060837        1.1323039992
 O         2.8140860458       -8.3324637119        0.7969891165
 C         3.0292355205       -6.9684240836        2.7198542018
 C         1.6243670976       -7.1820059910        3.3633527761
 C         1.3759562993       -8.6471968584        3.6207715328
 O         2.1497241868       -9.3240708678        4.2958014313
 C         0.1302686207       -9.4183435533        3.0473324127
 C         0.5659954198       -9.9768924293        1.6752536639
 O         0.2641462227       -9.3852619133        0.6457184587
 C         1.4438982909      -11.2577266889        1.8013460646
 C         0.9032101009      -12.4061534011        0.8903716089
 C         1.6358269891      -12.3333681921       -0.4715451052
 O         2.4355407547      -11.4850201566       -0.6715574088
 C         1.2535341225      -13.5327521866       -1.4745391288
 C         0.6890489291      -13.0078119667       -2.8165318370
 O        -0.4627154095      -13.2480548979       -3.1823996317
 C         1.5478550519      -12.0305969342       -3.6490623685
 C         0.7443712663      -11.1494349301       -4.5654998949
 C        -0.2085814734      -10.0322295161       -4.0429190305
 O        -0.1334645471       -9.4262906916       -2.9676681263
 C        -1.3286817281       -9.4285914272       -4.9702915124
 C        -0.8040576330       -8.1938101906       -5.7862800280
 O         0.3154092396       -7.9863568588       -6.0954765673
 C        -1.9695007364       -7.3416560404       -6.3033310415
 C        -1.7511096250       -5.9752602475       -7.0800285772
 C        -2.0869360854       -4.5977876108       -6.4185782121
 O        -2.3752950171       -4.3554195352       -5.2890682359
 C        -2.1662035251       -3.5037373276       -7.5532034681
 C        -1.9278032513       -2.0403504569       -7.0945190325
 O        -1.3631374414       -1.8118173976       -6.0362612572
 C        -2.4334223689       -0.8415727162       -7.9586592193
 C        -1.8083370072        0.5827028243       -7.6267037369
 C        -2.7547908697        1.7910616627       -7.7868862317
 O        -3.7873540618        1.7869581945       -8.4622423153
 C        -2.3293505089        3.1278210737       -7.0958099602
 C        -1.7766086833        4.1054271615       -8.1990316387
 O        -0.5886717324        4.1098602114       -8.5709005003
 C        -2.7105659813        5.1283397869       -8.7100722558
 C        -2.0232858360        6.3291184352       -9.4952621209
 C        -1.8642166372        6.1834679157      -10.9725950694
 O        -2.2474868387        5.2553684074      -11.6544646219
 C        -1.2799077629        7.4784118943      -11.7596837276
 C        -2.5296744100        8.1307070295      -12.6429837445
 O        -2.7554316556        9.3027963195      -12.6134611121
 C        -3.2541776637        7.1497507840      -13.6463599500
 C        -4.1211703936        8.0740445186      -14.6348508581
 C        -5.0883375484        7.1332792822      -15.5802556020
 O        -5.2470622016        5.9827789662      -15.3478432088
 C        -5.6850390696        7.8493258774      -16.9515409145
 C        -4.9472179871        7.1764685955      -18.1309960803
 O        -5.3129641400        6.0513012380      -18.4936239955
 C        -3.7283779984        7.8740673423      -18.7493620238
 C        -2.7790220574        6.7738263525      -19.2767173752
 C        -2.2212314117        6.0540000954      -18.0978736249
 O        -2.0351752051        6.5510697677      -17.0100293088
 C        -1.8022836689        4.5368401952      -18.1951068891
 C        -2.8112501468        3.7539560472      -17.2772865889
 O        -3.8981269024        3.4728081534      -17.7672757156
 C        -2.5820160267        3.4013399812      -15.7556090174
 C        -3.5736337440        2.3472676448      -15.2042177098
 C        -3.7116281892        1.0680049037      -16.0560515113
 O        -2.7337767425        0.6416902321      -16.7508211731
 C        -5.1102474739        0.1851485343      -16.1064495907
 C        -6.1470871954        1.1981224328      -16.6575284130
 O        -6.1837572320        2.3412058101      -16.1928069584
 C        -7.0995773274        0.6764052668      -17.6679823418
 C        -7.2440682306        1.6803539966      -18.8693131806
 C        -8.3027516791        2.7065603715      -18.6067914651
 O        -7.9883425731        3.6944658999      -18.0225950346
 C        -9.8266596258        2.5380971422      -19.0726941935
 C       -10.4593647291        1.1391883624      -18.7682133468
 O        -9.9111604230        0.2150330117      -18.2083641859
 C       -11.9024113094        1.0536945369      -19.1431386169
 C       -12.1733758176       -0.1294380121      -20.0559806775
 C       -13.2735890792       -1.1283719079      -19.6485655707
 O       -13.0137816259       -2.2261245879      -19.1591111773
 C       -14.7590015026       -0.8534274211      -20.1750495410
 C       -15.3062194548        0.6844600448      -20.0250400363
 O       -14.8371964288        1.5726928233      -19.3638858754
 C       -16.6546661328        0.8969482927      -20.8594434310
 C       -14.5941525414       -1.2934057012      -21.6399579050
 C       -15.6752214574       -1.7316656408      -19.2844547783
 C       -10.7003814974        3.7078040000      -18.6178529074
 C        -9.7785483039        2.4746998991      -20.7276305330
 C        -4.8974311121       -1.1393580061      -17.0908693366
 C        -5.6130186085       -0.2153719210      -14.7596730115
 C        -1.8916470140        3.9585759546      -19.7139060240
 C        -0.3559645232        4.4361191163      -17.4939995608
 C        -7.1675518769        7.4470837009      -17.1189267725
 C        -5.6565763197        9.3843452981      -16.8152549589
 C        -0.6040066728        8.5018153889      -10.8689562828
 C        -0.1154945615        6.8900036572      -12.6602223665
 C        -3.6743151971        3.6682269853       -6.3571242466
 C        -1.2026703385        3.0381051499       -6.0417595096
 C        -0.9404731861       -3.6757529348       -8.5606501796
 C        -3.5071728568       -3.7507606008       -8.2829614643
 C        -1.8544005856      -10.3929076667       -5.9985550473
 C        -2.4914125695       -8.8839936444       -4.0261344055
 C         2.6237310840      -14.2373318878       -1.7208042791
 C         0.2908332433      -14.4646124083       -0.7547381242
 C        -0.2331702958      -10.5454453683        3.9799408901
 C        -1.1858427498       -8.5334180629        2.8474806871
 C         3.4330393066       -4.6611959506        0.4183062692
 C         1.4074578152       -5.9172247670       -0.4018602107
 H         4.6051387299       -4.6772035792       -1.9718858285
 H         4.8327205581       -6.2098372898       -2.8263483789
 H         5.6927795326       -6.0069370783       -1.4752893398
 H         3.5411416127       -6.1465210527        3.1543525987
 H         3.5488966060       -7.7780897639        3.0680466532
 H         0.9000863441       -6.7068499252        2.7011779388
 H         1.6469835335       -6.6798295086        4.3347961605
 H         1.4422808942      -11.5599342741        2.7885448300
 H         2.4936547965      -10.9260084886        1.5146936311
 H        -0.2199451935      -12.3217299365        0.7171099475
 H         0.9668294362      -13.4420163663        1.2563824766
 H         2.3122390638      -12.6324001595       -4.2455351135
 H         2.2262663933      -11.4037624027       -3.0360678871
 H         0.0990192694      -11.8946733856       -5.1204574889
 H         1.3546812164      -10.5930407525       -5.3100914992
 H        -2.7979266074       -7.0373881026       -5.6839058018
 H        -2.4658538572       -8.0220034145       -7.1069005035
 H        -2.4563049602       -6.0560184071       -7.8708489113
 H        -0.7030470457       -5.9993081928       -7.4757830543
 H        -3.5553261291       -0.7318323003       -7.9338978322
 H        -2.2216091395       -0.9141820118       -9.1003773337
 H        -1.1070440608        0.7102845063       -8.4193216393
 H        -1.2864633047        0.4745981390       -6.7376772956
 H        -3.1945401146        5.6370457419       -7.8136853773
 H        -3.4901627682        4.6420216151       -9.3276700207
 H        -1.1213853506        6.5434314601       -8.8559632722
 H        -2.7038379292        7.1624271007       -9.4717975054
 H        -3.9866689612        6.6814769953      -12.9768358462
 H        -2.5124743352        6.5626982058      -14.1828878540
 H        -3.5632608868        8.6988951392      -15.3584853512
 H        -4.9336308088        8.7268239459      -14.2070074393
 H        -3.2826118166        8.6430677369      -18.2124298489
 H        -4.1399909077        8.3035123980      -19.6944704574
 H        -1.9472861911        7.1860607444      -19.7870706919
 H        -3.3069326042        6.0905509974      -19.9212101737
 H        -2.6674200632        4.3336105784      -15.1865689933
 H        -1.5885297587        2.9695343636      -15.6124222117
 H        -4.5385353947        2.8105579892      -15.1183505101
 H        -3.2503041105        2.0901866027      -14.2206502911
 H        -8.0194252654        0.3978682140      -17.1051536012
 H        -6.8051954591       -0.1418293376      -18.2065743215
 H        -7.4463438552        1.1752873043      -19.8757388769
 H        -6.3078331980        2.2920395987      -18.9193639855
 H       -12.4276844143        1.9953260800      -19.4254957887
 H       -12.2504074512        0.8612328796      -18.1047747602
 H       -11.2111983237       -0.7345589679      -20.0541671691
 H       -12.4694968551        0.2266851599      -21.0306326723
 H       -17.3596269096        0.0623851387      -20.7843266543
 H       -16.5449990388        0.8255341996      -21.9215476257
 H       -17.1494731344        1.7429155043      -20.5310804580
 H       -13.6604482438       -1.7945459928      -21.7849711138
 H       -14.6271680276       -0.5055601805      -22.2718353055
 H       -15.4190215784       -1.8854564896      -22.0146074167
 H       -15.4730001770       -1.7007459261      -18.2222937370
 H       -15.5450154503       -2.7740734729      -19.5510828932
 H       -16.6616210847       -1.4562089326      -19.5096195673
 H       -11.5263470271        3.3131723705      -17.9192823383
 H       -11.0187976927        4.3339976406      -19.4615740876
 H       -10.0895253258        4.3190074391      -17.9186264243
 H        -9.7660373053        1.4028320381      -20.9129730094
 H        -8.8618470181        2.8730668170      -21.0837115079
 H       -10.6890415757        2.8564093581      -21.0299280381
 H        -5.8101293747       -1.7816960691      -17.2068346113
 H        -4.1244330225       -1.7754923232      -16.6950344664
 H        -4.6041819473       -0.8637927801      -18.1069008381
 H        -5.1900481976       -1.0138030207      -14.2609659553
 H        -6.6599176385       -0.5552628244      -14.8543862330
 H        -5.5364205905        0.6509757154      -14.0739871003
 H        -1.1649682855        3.1722960319      -19.7636051476
 H        -1.5682111029        4.7468658155      -20.3340504198
 H        -2.8720917108        3.5136002509      -19.9398555685
 H         0.2753673962        5.0891860687      -18.0025311388
 H         0.0233823071        3.4350973247      -17.6011819795
 H        -0.3225944902        4.5953659302      -16.4102279317
 H        -7.1924506799        6.3781292673      -17.0608203736
 H        -7.4386590936        7.6656739519      -18.2080843302
 H        -7.9578369657        8.0718849930      -16.6130910325
 H        -4.7124393049        9.8478257336      -17.1514868293
 H        -5.7183011498        9.5345968418      -15.7007035359
 H        -6.5273051340        9.8660696933      -17.2447933389
 H         0.0542401684        7.9786188983      -10.1517946832
 H        -1.2413965628        9.1317052871      -10.2786928567
 H         0.1409149284        9.0007385129      -11.5025933988
 H        -0.3989767946        6.8578924943      -13.7126663566
 H         0.1596859131        5.8752362728      -12.3834565578
 H         0.7689534351        7.5124292784      -12.5088908039
 H        -4.4499805164        3.8403414253       -7.0165035140
 H        -3.4463088552        4.6301214660       -5.9532734938
 H        -4.0231674918        2.9995940108       -5.5499441188
 H        -0.8964349263        4.0982644633       -5.7391854266
 H        -0.3915053419        2.5283465150       -6.5386769775
 H        -1.5064248810        2.5707074346       -5.0699262803
 H        -1.0096021739       -4.4897140583       -9.2053926155
 H         0.0499263488       -3.7476071353       -8.1723695154
 H        -1.0537919195       -2.8243005363       -9.1269315932
 H        -3.5449562448       -4.6950595915       -8.8194857850
 H        -3.7580660496       -3.0091955546       -9.1193201960
 H        -4.3538099266       -3.8937904870       -7.6108920021
 H        -2.0725517903      -11.3947367477       -5.6404089871
 H        -1.1331123059      -10.6204700290       -6.7971952098
 H        -2.7002330414      -10.1022358054       -6.5520338387
 H        -2.4454364746       -7.8418197752       -3.8242198474
 H        -2.5514265992       -9.3251508423       -3.0170528773
 H        -3.4889831889       -9.1442384357       -4.4810249000
 H         3.3304218180      -13.6118401753       -2.3024331171
 H         2.4364393778      -15.1595251470       -2.3196788207
 H         3.1094419681      -14.5563437052       -0.7970343398
 H         0.1661950621      -15.3039133542       -1.4119331124
 H        -0.7107707203      -14.0581172806       -0.5486705016
 H         0.5870434220      -14.9917678616        0.1918560358
 H        -0.1079604217      -11.6057514776        3.5674505445
 H        -1.2508479821      -10.3501369229        4.3075632732
 H         0.3785172212      -10.6773847628        4.9059545508
 H        -1.8473473865       -9.2589169259        2.4501362947
 H        -1.1427844411       -7.7566740772        2.0929693447
 H        -1.5808274997       -8.2154288261        3.8007415010
 H         3.0287456848       -3.9862061451       -0.3159241666
 H         4.5220587116       -4.6285440560        0.3106777064
 H         3.1535356557       -4.4577351732        1.4491882127
 H         0.6152418569       -5.6562997862        0.3492655049
 H         1.0373754176       -6.8205118022       -0.8951414000
 H         1.3743868140       -5.0799530392       -1.1571635186
 Na        1.5016388423       -9.2060053934       -1.2223256432
 Na       -5.8429737032        4.3389012339      -17.0920130409
