232

 C         5.0396743043       -6.3112175377       -1.7068749147
 C         3.6484284538       -6.5943412850       -1.2336348070
 O         2.7938694425       -7.2034950760       -1.8707994115
 C         3.1217921053       -5.8973146360        0.1266422937
 C         2.9651051420       -7.0415454789        1.2617282802
 O         2.5599005412       -8.1317195587        0.9415378874
 C         3.2987593558       -6.7692831711        2.7224300489
 C         2.0632631056       -6.9682473720        3.6338866931
 C         1.5439562175       -8.4882214628        3.4665107623
 O         2.3878637901       -9.2515614875        3.8424066448
 C         0.1776558499       -9.0622822047        2.9249769909
 C         0.4529531316       -9.7608002376        1.5613344065
 O         0.0463356223       -9.1541014052        0.5980111346
 C         1.3482124268      -10.9709299207        1.6075404564
 C         0.9867846466      -12.1574598849        0.6711415279
 C         1.7195655105      -12.3193580704       -0.6399055628
 O         2.3848960280      -11.4041264377       -1.1396070275
 C         1.4235382079      -13.5470085082       -1.5542568852
 C         0.5403261986      -12.9474779149       -2.8569453485
 O        -0.6497510551      -13.0007260911       -2.7268558052
 C         1.3472470602      -12.2706233364       -3.9928093481
 C         0.5479102403      -11.4421163485       -5.0383285675
 C        -0.1384053212      -10.0775792198       -4.5194814139
 O         0.2638835420       -9.4278304385       -3.5625680024
 C        -1.4559967924       -9.6177980208       -5.2168605088
 C        -1.0172779142       -8.2761303001       -5.8903841885
 O         0.1609590957       -8.2374750747       -6.2786828004
 C        -2.0483144023       -7.1647088442       -6.1038569466
 C        -1.7100947396       -6.0715172018       -7.2430561721
 C        -1.9591600913       -4.5373579012       -6.9083729963
 O        -2.3117625044       -4.2368049465       -5.7752307178
 C        -2.0427392062       -3.3565728468       -8.0330119465
 C        -1.6899681830       -2.0274075706       -7.2185234239
 O        -0.7835423493       -2.1962432212       -6.4426794408
 C        -2.6223245265       -0.8243291294       -7.3665341278
 C        -2.0753367321        0.4321054223       -6.5983881880
 C        -2.3562403822        1.7861025041       -7.3405183341
 O        -3.1299739846        1.8070300522       -8.2447808511
 C        -1.9012106645        3.1945979330       -6.7270249134
 C        -1.5502015421        4.2390171391       -7.9892876622
 O        -0.4343189153        4.3320964309       -8.3890118986
 C        -2.7050951006        5.0053516503       -8.6255938921
 C        -2.2514771880        6.2978745769       -9.4038877688
 C        -2.0626208285        6.1547507143      -10.9071777385
 O        -2.4379417863        5.1579706573      -11.5126689589
 C        -1.5995059694        7.3856044664      -11.7322427629
 C        -2.8663925991        7.7028672892      -12.5421060472
 O        -3.6349603532        8.5671686288      -12.1787380115
 C        -3.0189278206        6.9082973598      -13.9252278406
 C        -3.6331006069        7.8027946963      -14.9950078140
 C        -4.8427550995        7.0949581887      -15.6343179111
 O        -5.0277803600        5.8793378326      -15.6382766047
 C        -5.7273086486        8.0037373081      -16.6549213071
 C        -5.2278538687        7.3613146550      -17.9831690528
 O        -5.8096985472        6.3592274478      -18.3996075372
 C        -3.8513867346        7.6969136144      -18.6181180120
 C        -3.0764410486        6.3684075995      -19.0499678382
 C        -2.3262358489        5.7560783425      -17.9056869456
 O        -2.1401890355        6.3425820315      -16.8340250973
 C        -1.8186374111        4.2502762950      -18.1679921390
 C        -2.7847496799        3.4998174289      -17.2025902937
 O        -3.9649905052        3.5511714023      -17.4570338705
 C        -2.3058845494        2.9599022804      -15.9350798083
 C        -3.4347591669        2.1650296780      -15.1753041311
 C        -3.5297252580        0.6611744117      -15.8473077973
 O        -2.6555817302        0.2227597112      -16.4607150498
 C        -5.0933351721        0.0682863946      -15.7891356521
 C        -6.1628934748        1.1852016116      -16.5481802195
 O        -6.2291467837        2.2877154662      -16.0870239953
 C        -6.8492180723        0.6985783193      -17.8138915773
 C        -7.2697718865        1.8152127255      -18.8362019084
 C        -8.4705074887        2.7301924485      -18.5408602568
 O        -8.3285937517        3.8323064938      -17.9338761789
 C        -9.9522296498        2.5243361960      -19.0912576829
 C       -10.5094159304        1.0756857602      -18.8024894502
 O        -9.7766862905        0.1740933302      -18.3764607184
 C       -11.9794238958        0.7857527816      -18.9202006548
 C       -12.4881262284       -0.0433207585      -20.2238155920
 C       -13.6419202173       -1.1085442769      -19.8110561923
 O       -13.3915595660       -2.0201574524      -19.0855171711
 C       -14.9857194780       -0.8387462913      -20.5860551572
 C       -15.3427076624        0.5721974051      -20.2263677195
 O       -14.6929587619        1.0289868528      -19.2767259271
 C       -16.3432449917        1.4166015143      -20.9704989424
 C       -14.9028532573       -1.2221521888      -22.1649156008
 C       -16.1902388769       -1.6765524702      -20.0185562219
 C       -10.8811342311        3.6452556732      -18.4088627070
 C        -9.9322930900        2.7109255649      -20.6876899420
 C        -5.1537170500       -1.3519719657      -16.2853999237
 C        -5.2721914570        0.1212717266      -14.1753080306
 C        -1.9060940900        3.7713153208      -19.6319967978
 C        -0.2656980726        4.1853865805      -17.7048170172
 C        -7.1904719586        7.8385989199      -16.4304881470
 C        -5.2999796738        9.4980816953      -16.5977411601
 C        -1.3756127328        8.5927442508      -10.7768471420
 C        -0.3816863205        6.9796867175      -12.6032887067
 C        -3.0095642003        3.7194815444       -5.8311442414
 C        -0.5437071358        3.1058387825       -5.9489452819
 C        -1.1114246678       -3.4309513923       -9.2419342006
 C        -3.4837576532       -3.6565198171       -8.6577665198
 C        -2.0501160210      -10.5257312447       -6.2885516452
 C        -2.5088084289       -9.5424995477       -4.0556812501
 C         2.6862724846      -14.2844804039       -2.1021099765
 C         0.5152394764      -14.5859200430       -0.8065681485
 C        -0.2763540914      -10.0578782923        3.9837469429
 C        -0.7875027695       -7.9632636283        2.7180470631
 C         4.0652341770       -4.6368981440        0.5857385993
 C         1.7409407463       -5.2142962551       -0.2036302329
 H         5.2337246689       -6.7376738481       -2.6942978030
 H         5.7838072116       -6.6219386273       -0.9541783900
 H         5.2194216000       -5.2899073848       -1.7924175345
 H         3.5898624112       -5.7841623260        2.8300280685
 H         4.0041785537       -7.4549822331        3.1173127648
 H         1.4107808526       -6.1467610307        3.4679191523
 H         2.4007644232       -6.8735327274        4.6923878147
 H         1.3294952626      -11.3699026377        2.6622639373
 H         2.3461401740      -10.6429569800        1.2696716469
 H        -0.0405753129      -12.2123547725        0.2431789324
 H         1.1363808063      -13.0848475144        1.2779200669
 H         2.0019450467      -12.9713754472       -4.5754625218
 H         2.0107664297      -11.4956549106       -3.5203303586
 H        -0.2782496706      -12.0701725887       -5.4787762456
 H         1.2415662085      -11.2148589673       -5.8855785010
 H        -2.3017273274       -6.6420060521       -5.0864263713
 H        -2.9914653563       -7.6471927848       -6.3065857587
 H        -2.2522621883       -6.4394903465       -8.1413748934
 H        -0.6903055661       -6.2655630699       -7.5004500816
 H        -3.6770034421       -1.1029374543       -6.9742765525
 H        -2.5999690514       -0.5325594241       -8.4479716125
 H        -1.0505943386        0.2680213116       -6.5654483267
 H        -2.3932606634        0.2270542211       -5.6164386960
 H        -3.4998166904        5.2868781183       -7.9870027434
 H        -3.2062202901        4.2973372623       -9.4405184146
 H        -1.3038985343        6.6576315825       -8.9387547423
 H        -3.0418125713        7.0408863892       -9.1930171948
 H        -3.6349295933        6.0871438089      -13.5934535257
 H        -1.9730848329        6.5980228814      -14.1817334753
 H        -3.0246403211        8.1865711022      -15.8783825730
 H        -4.1176507925        8.7418294209      -14.5139770231
 H        -3.2203732303        8.2456976948      -17.9273414326
 H        -4.0634454659        8.3594070453      -19.4512994785
 H        -2.3430089884        6.4855772730      -19.8302704469
 H        -3.7437216065        5.6079105514      -19.3520690535
 H        -1.9884741275        3.8661797003      -15.3943346723
 H        -1.4874883460        2.3209223806      -16.1181349682
 H        -4.3350375329        2.6878209546      -15.2253386284
 H        -3.1791373631        2.2042439117      -14.1182717892
 H        -7.6709804515        0.0883563157      -17.6052111960
 H        -6.1277253882        0.1397261266      -18.3992171543
 H        -7.5479207601        1.4130156941      -19.8470332651
 H        -6.4617963970        2.6171091135      -18.9136577743
 H       -12.6386093071        1.6825958892      -18.7377567939
 H       -12.1519675947        0.0160331038      -18.1624678004
 H       -11.7285174963       -0.6654117789      -20.7183358168
 H       -12.8841595806        0.5613521046      -21.0938436042
 H       -17.2838738201        0.9411822418      -20.9993568045
 H       -15.9615469820        1.5117489685      -21.9651553617
 H       -16.5369392928        2.4191887176      -20.5508773600
 H       -14.7425627066       -2.2571720855      -22.1962808743
 H       -14.0765815205       -0.7242444551      -22.7104654808
 H       -15.7968024757       -1.0728428221      -22.6744768747
 H       -16.5119567175       -1.4899528112      -18.9989432387
 H       -15.8296524288       -2.6467884423      -20.0823788645
 H       -17.0655016934       -1.5335676631      -20.6313108781
 H       -11.9324391325        3.4623156434      -18.6376847244
 H       -10.5361908078        4.6947066139      -18.7312104080
 H       -10.6238714429        3.7197867934      -17.3314204779
 H        -9.1045446182        2.1931782583      -21.0442523106
 H        -9.8925008811        3.7577486175      -20.7975955850
 H       -10.8818421095        2.2627356043      -21.0529006521
 H        -6.1500680671       -1.7936622175      -16.3339195996
 H        -4.6261055869       -1.9408398112      -15.4978445704
 H        -4.7173040011       -1.4897373413      -17.2934156606
 H        -4.5017603974       -0.5266145257      -13.6762251509
 H        -6.2501992295       -0.1214359924      -13.8287799053
 H        -5.1046160312        1.0560176982      -13.7070009085
 H        -1.6816148745        2.7267741518      -19.5722939451
 H        -1.2673890955        4.3462565614      -20.3485917747
 H        -2.9156418652        3.9058702029      -19.9034731779
 H         0.3832964680        4.8870224005      -18.2191396536
 H         0.1555674751        3.2433081860      -18.0259935036
 H        -0.0924125534        4.3063238199      -16.6926350643
 H        -7.7071954548        8.4323303165      -15.5986989305
 H        -7.4485037143        6.7665451656      -16.3216727115
 H        -7.5997256334        8.3143733509      -17.2898792511
 H        -4.2278020221        9.4384534784      -16.8634348557
 H        -5.5628460244        9.9352104894      -15.6361886327
 H        -5.7511026424       10.1212173552      -17.3731256285
 H        -0.5042839476        8.6228169385      -10.0774554884
 H        -2.3074847092        8.5493705027      -10.1523582644
 H        -1.5104785628        9.5272773910      -11.2875297357
 H        -0.3699209651        5.9293493775      -12.7202932178
 H         0.4881462663        7.3688200633      -12.1325075777
 H        -0.4830147927        7.2318883614      -13.6348804078
 H        -3.9549489485        3.7747836992       -6.3841616883
 H        -2.8187954356        4.7252069644       -5.4720141366
 H        -3.1709643988        3.1443034938       -4.9912344406
 H        -0.2438608091        4.1422571619       -5.9172892506
 H         0.3227029868        2.5449432143       -6.4543874985
 H        -0.8072689482        2.6197374943       -5.0089871264
 H        -1.2180998198       -4.3029537954       -9.8046600840
 H        -0.1926433673       -3.2256684252       -8.8775198340
 H        -1.3231527093       -2.6317180129       -9.8873492478
 H        -3.6625884095       -4.7729401747       -8.4921479601
 H        -3.5267590477       -3.4732264855       -9.6793977188
 H        -4.3087109976       -3.0223383583       -8.2720969205
 H        -2.2451140964      -11.4809967080       -5.9410677352
 H        -1.4868096756      -10.5681160339       -7.1905778314
 H        -3.0275851399      -10.2080755274       -6.7530792946
 H        -2.0437818409       -9.1490412598       -3.1249383610
 H        -3.0174325447      -10.5047909072       -3.8408019241
 H        -3.2330570808       -8.7979983325       -4.3029657635
 H         3.3721301091      -13.5791093417       -2.5213288847
 H         2.3613586263      -15.0762870551       -2.7306065744
 H         3.3733662225      -14.7389577581       -1.3393034727
 H         0.1761678665      -15.4137118410       -1.4676388839
 H        -0.4639877156      -14.2335720653       -0.5023188024
 H         0.9513047689      -15.0252368542        0.0962536966
 H        -1.1759323632       -9.6656335709        4.5094071188
 H         0.5082634246      -10.2929458108        4.7791111598
 H        -0.4954791123      -11.1048840484        3.6669310920
 H        -1.4835897949       -8.3666317473        2.0107886653
 H        -0.2400570422       -7.1339963872        2.3303216141
 H        -1.3151342838       -7.7212199169        3.5937690046
 H         3.8644382319       -3.7920187695       -0.1017789494
 H         5.1192859045       -4.8785002117        0.5443462995
 H         3.8340044075       -4.3471448750        1.5994317675
 H         1.2205035871       -4.8145563264        0.6800742101
 H         1.0427020487       -5.9855508273       -0.6053597853
 H         1.8513610195       -4.4826042012       -1.0361318116
 Na        1.5569150675       -9.0341124733       -1.3179835601
 Na       -6.2092836148        4.4605901903      -17.0977269027
