232

 C         5.1152580680       -6.5728340706       -1.6533875977
 C         3.6437891870       -6.5905440711       -1.2059747916
 O         2.7702691527       -7.2144482585       -1.8081193329
 C         3.2424215978       -5.7841884929        0.0814353265
 C         3.1433817634       -6.8847284655        1.2053652392
 O         2.5019592915       -7.8913423258        0.8871997227
 C         3.4199773796       -6.6683931489        2.6776562876
 C         2.1010762317       -7.0270219038        3.4086263700
 C         1.7446917770       -8.4748258986        3.3392969467
 O         2.5117315700       -9.3319587884        3.7232048204
 C         0.3010455077       -8.9629030009        2.7622363966
 C         0.5677541025       -9.7131071646        1.4294614087
 O         0.0861372128       -9.2921119906        0.3828508330
 C         1.4281109163      -10.9666257702        1.4126057682
 C         0.7457415826      -11.9216679045        0.4780223836
 C         1.5958378833      -12.1015833417       -0.8346839811
 O         2.3591561144      -11.2317609935       -1.2193497685
 C         1.3734334566      -13.3545855221       -1.6643398561
 C         0.4949104721      -12.8092487423       -2.8116473216
 O        -0.7159965483      -12.7439856312       -2.7079085055
 C         1.3020963018      -12.2139750777       -3.9775248707
 C         0.3226928096      -11.4982190281       -4.9450152513
 C        -0.1592829870      -10.0929349939       -4.4190150414
 O         0.4445690394       -9.4698715170       -3.5680010957
 C        -1.4081800187       -9.4724762432       -5.2196337806
 C        -0.9437622662       -8.1683834236       -6.0142988984
 O         0.1459152820       -8.1002724798       -6.4435476287
 C        -1.7619300052       -6.9416142010       -6.0218499027
 C        -1.4847938314       -5.9839220464       -7.1546083869
 C        -2.0641390294       -4.5721240854       -6.9061753698
 O        -2.3660361222       -4.2901398703       -5.7631370370
 C        -2.1669099148       -3.4981200625       -8.0166435647
 C        -1.6191795592       -2.1122381796       -7.2402354884
 O        -0.5359263240       -2.1153129334       -6.7364700422
 C        -2.6057902552       -0.8760215573       -7.1881555692
 C        -1.9538551857        0.2911785624       -6.4050021720
 C        -2.1690797499        1.6386716756       -7.2145996440
 O        -2.9508807827        1.6034235084       -8.1714934489
 C        -1.6738781516        3.0160952685       -6.6860853735
 C        -1.5117002966        4.0715378249       -7.8001781913
 O        -0.3798466665        4.4574979323       -8.1014075053
 C        -2.7100302174        4.6532022000       -8.5630399775
 C        -2.3700695757        6.0452307411       -9.2202209136
 C        -2.2642318122        6.0232812649      -10.7505208564
 O        -2.3193961995        4.9819992805      -11.3251890232
 C        -1.7784388265        7.3873318233      -11.5817003148
 C        -2.9730517684        7.5453151676      -12.5052572282
 O        -3.8778762777        8.3039439290      -12.1855163176
 C        -3.1210166152        6.7868057793      -13.8550223815
 C        -3.7370634110        7.8325141564      -14.7405548969
 C        -4.7917230932        7.1440379150      -15.6849098585
 O        -4.9797276699        5.9483062215      -15.6052559179
 C        -5.6631708358        7.9931522463      -16.7032627180
 C        -5.3471725906        7.3067483245      -18.1167767865
 O        -6.0402971190        6.3779328862      -18.4623560931
 C        -3.9380441716        7.5808362707      -18.7473558134
 C        -3.2303241153        6.3162394053      -19.1858765415
 C        -2.2261074702        5.6189433393      -18.0597653978
 O        -2.1365284470        6.2057548620      -17.0135249046
 C        -1.6346332429        4.1884888536      -18.3052400418
 C        -2.6805198507        3.5709939365      -17.2427549042
 O        -3.8859384914        3.7313293953      -17.4349018314
 C        -2.1702034534        2.8860351112      -16.0082632150
 C        -3.2004431023        2.0673544005      -15.1293815122
 C        -3.7220340823        0.7464748983      -15.7685299583
 O        -3.0397619932        0.0076246885      -16.5035816027
 C        -5.3071122596        0.2889171759      -15.6688777984
 C        -6.1122736938        1.2606465611      -16.5691207124
 O        -6.3776469190        2.2848953219      -15.9485545759
 C        -6.8250580979        0.7893076386      -17.8288400211
 C        -7.1948269392        1.8213602178      -18.7991178619
 C        -8.5258190818        2.6858862253      -18.3238265716
 O        -8.3243866135        3.6097992657      -17.6322225076
 C       -10.0014404417        2.4105423839      -18.8987319340
 C       -10.4416126187        0.9271980286      -18.8097121895
 O        -9.7297074259       -0.0105057773      -18.6011978420
 C       -11.9545105045        0.5874463309      -18.9609772900
 C       -12.3676739808       -0.1929969652      -20.1849513440
 C       -13.6231017573       -1.0898492013      -19.8065463094
 O       -13.5631888429       -1.9966418798      -18.9837499790
 C       -14.9756694831       -0.7638787554      -20.6909399395
 C       -15.4016943484        0.7659778288      -20.2716931447
 O       -15.0492113882        1.1887023372      -19.1871824858
 C       -16.2378960135        1.4822181076      -21.2731961129
 C       -14.8104348439       -0.7630842938      -22.1767492558
 C       -16.0546673822       -1.7192496129      -20.2432666192
 C       -11.0510375075        3.3960715363      -18.3609443178
 C        -9.8954899076        2.6548838884      -20.5542684642
 C        -5.2491935643       -1.1779853576      -16.1197985132
 C        -5.8293272063        0.4314400819      -14.2752390703
 C        -1.9352971783        3.5953475502      -19.6336467846
 C        -0.2249927933        4.1582370526      -17.7752113780
 C        -7.2018185781        7.7365647204      -16.2875825089
 C        -5.3163624438        9.6137455499      -16.6779859747
 C        -1.4459766666        8.6392121602      -10.7292487704
 C        -0.4071849722        7.1025159136      -12.3383267871
 C        -2.7339657547        3.5618232314       -5.7258168531
 C        -0.3376390225        2.9005206687       -5.9274058588
 C        -1.0528907086       -3.9487620388       -9.0374669724
 C        -3.5416024261       -3.4263556644       -8.5702771497
 C        -1.9242170051      -10.4728904975       -6.3257346069
 C        -2.5895053353       -9.1769819747       -4.2113117153
 C         2.6964497061      -13.9264036735       -2.1176862995
 C         0.6107117585      -14.5206869795       -0.9936008273
 C        -0.2646123211       -9.8990754238        3.7946850666
 C        -0.7166671709       -7.8727705490        2.5758791005
 C         4.3366294569       -4.6642577611        0.5540012987
 C         1.8032815412       -5.2094076440        0.0414565256
 H         5.5300703459       -7.5850003052       -1.8450309497
 H         5.7551127345       -5.9446914273       -1.0457493299
 H         5.2504407182       -6.0506709475       -2.6769575822
 H         3.6600593812       -5.5503781583        2.8953817698
 H         4.1582474382       -7.4157478083        3.1175981730
 H         1.2280195915       -6.4082008208        3.0145289775
 H         2.1798327831       -6.7930529283        4.4707017263
 H         1.3877447174      -11.4059536945        2.3580393468
 H         2.4676289500      -10.7401064183        1.0533538337
 H        -0.2255412830      -11.5509623480        0.2006574070
 H         0.6380656099      -12.8392196507        0.9792645075
 H         1.8075657711      -13.0138102050       -4.4890177631
 H         1.9998627838      -11.4661710244       -3.6479583994
 H        -0.6019209418      -12.0530770133       -5.0120009282
 H         0.6686100016      -11.4057826820       -5.9680103278
 H        -1.5375705240       -6.4845979362       -5.1280687260
 H        -2.8383039975       -7.1161099814       -5.8322938285
 H        -1.8109921966       -6.4631537548       -8.0444611758
 H        -0.3763811772       -6.0246258288       -7.2930325557
 H        -3.5063764694       -1.1428594765       -6.7784364190
 H        -2.7507808681       -0.4386981810       -8.1549804039
 H        -0.8855610576       -0.0429456550       -6.1356243351
 H        -2.4674214670        0.4412676053       -5.4147013739
 H        -3.6853846522        4.8202665357       -7.9982059532
 H        -2.9320341055        3.9328362123       -9.2572320329
 H        -1.3959398716        6.2460734621       -8.7799245363
 H        -3.0024706421        6.8695850558       -8.8967773007
 H        -3.8655977901        5.9563762325      -13.6230555077
 H        -2.2134564070        6.3830667159      -14.2624628225
 H        -2.9361562543        8.4195283214      -15.1997680782
 H        -4.3062777495        8.5509566448      -14.1489485041
 H        -3.3319301066        8.0133304689      -17.9192972080
 H        -3.8921735147        8.3213205294      -19.5983254893
 H        -2.5207463202        6.7072355531      -19.9564973191
 H        -3.9202821070        5.5654061859      -19.7031954831
 H        -1.6852479958        3.6265034772      -15.3939920629
 H        -1.3969909758        2.1608749123      -16.3653085864
 H        -4.0481922780        2.6803611323      -14.7153871820
 H        -2.6061495367        1.9185084189      -14.2211041281
 H        -7.7579234119        0.1735235571      -17.5220567191
 H        -6.1372681940        0.1489224878      -18.3888199614
 H        -7.4894433097        1.4643317106      -19.7740468033
 H        -6.4040095391        2.5161152587      -18.9102923203
 H       -12.6461092575        1.4131676940      -18.7635105838
 H       -12.0715952586       -0.1606990395      -18.1879828075
 H       -11.5937767347       -0.9143932159      -20.4805413306
 H       -12.5154784100        0.3444472138      -21.0957318240
 H       -17.3198981011        1.1442930211      -21.0939305294
 H       -15.9167803425        1.4353896157      -22.3007768283
 H       -16.2698152255        2.5581873880      -21.0282949904
 H       -14.1851888388       -1.6621149601      -22.4562011872
 H       -14.2368404654        0.0740562815      -22.4859478433
 H       -15.7595766515       -1.0530239983      -22.6981529655
 H       -16.0005736295       -1.8586550300      -19.1183429301
 H       -15.8455594243       -2.6828078069      -20.7910312103
 H       -17.0917669777       -1.3749033115      -20.4278234362
 H       -11.7264725977        3.7077996502      -19.1912781061
 H       -10.6220714213        4.2163865848      -17.8796153090
 H       -11.5559739056        2.9136168095      -17.5520299943
 H        -9.5490787739        1.6408291324      -20.8949027231
 H        -9.2713759732        3.5556551806      -20.6781794734
 H       -10.8838305379        2.9027609616      -20.8879563142
 H        -6.2516924193       -1.6095353469      -16.0141631864
 H        -4.6236881241       -1.7262531556      -15.4577697780
 H        -4.9346205714       -1.3239715606      -17.1351276125
 H        -5.2040144310       -0.0643619480      -13.6300455051
 H        -6.8605190249        0.0761263544      -14.1491419220
 H        -5.8700316003        1.4594232100      -13.8683980078
 H        -0.9835312427        3.2220575155      -20.0870002497
 H        -2.3982331037        4.3782966364      -20.2197457188
 H        -2.7641844199        2.7650567080      -19.5355658800
 H         0.4272341376        4.7385209079      -18.4282193708
 H         0.2552076824        3.1562138137      -17.8495450424
 H        -0.0722427806        4.6633842154      -16.7760925794
 H        -7.7699542498        8.5679392989      -15.9850663538
 H        -7.1038715437        6.9754349070      -15.5467139651
 H        -7.8031827550        7.3762791449      -17.1308026999
 H        -4.5568856795        9.9506865417      -17.4036436753
 H        -5.2058936362        9.9666852574      -15.6476688684
 H        -6.1972546590       10.0650664621      -17.0731461692
 H        -1.0796364937        8.3098647707       -9.7756310138
 H        -2.1721968203        9.4015090960      -10.6076719810
 H        -0.6494034998        9.1844186632      -11.2596577789
 H        -0.5752474573        6.4602732866      -13.2026519633
 H         0.3735800655        6.7890484099      -11.6283241023
 H        -0.1245484560        8.0113864527      -12.8841596979
 H        -3.7330414973        3.6652869577       -6.0904798178
 H        -2.3764869569        4.5357849230       -5.3494631544
 H        -2.8605637916        2.9655452331       -4.7740716055
 H        -0.1517947532        3.9075098126       -5.6571345076
 H         0.4443072434        2.5810234352       -6.5610694006
 H        -0.4868398680        2.2526273302       -5.1385706883
 H        -1.5473406606       -4.8832841969       -9.4583432585
 H        -0.0251091107       -3.9408602296       -8.5820392857
 H        -1.0391688216       -3.2619205558       -9.8757234722
 H        -3.9376078580       -4.3858358664       -8.8726733055
 H        -3.6520442487       -2.6122335815       -9.3875116427
 H        -4.1467048506       -2.9490992810       -7.7887563873
 H        -2.4835779213      -11.4278084281       -6.1116638092
 H        -1.0611330410      -10.7055773053       -7.0294064728
 H        -2.6097656431       -9.9759806443       -6.9855627247
 H        -2.5248955291       -8.1802948502       -3.8273956932
 H        -2.5534917026       -9.8713976182       -3.3712023395
 H        -3.5898388185       -9.1925202231       -4.7358492710
 H         3.2852947399      -13.1459413002       -2.6409225420
 H         2.4810279706      -14.8404964967       -2.7337707317
 H         3.3788470440      -14.2498316934       -1.3449180664
 H         0.5250127906      -15.3103299122       -1.6993370497
 H        -0.4579770394      -14.3889970237       -0.7835584083
 H         1.0512615458      -14.9304155163       -0.0586433889
 H        -0.3044741478       -9.3912579011        4.7715855157
 H         0.0723648158      -10.8841559298        3.9319176389
 H        -1.2831073636      -10.1087784602        3.4406711614
 H        -1.6936169546       -8.3725479919        2.5817772768
 H        -0.4489770645       -7.2367749346        1.7006292685
 H        -0.6683551377       -7.2492401662        3.5215175074
 H         4.7885623193       -4.2368298790       -0.3540950029
 H         5.1243896186       -5.2132926176        1.1183225645
 H         3.9252018453       -3.7616807440        1.0889813291
 H         1.3564788130       -4.7746852466        0.9451118539
 H         1.2176006566       -6.0814085688       -0.2154600418
 H         1.6417028196       -4.5557794304       -0.8113517802
 Na        1.1244164020       -8.9349425088       -1.5126733760
 Na       -6.1502389231        4.3372621584      -16.9150685147
