232

 C         5.2325797209       -7.0514291029       -2.0882312491
 C         3.8230178122       -6.6983486676       -1.5569657875
 O         2.8630864560       -7.0417284508       -2.2248721376
 C         3.5979009000       -5.8905771143       -0.2717870109
 C         3.0742673004       -6.8380790819        0.8850658478
 O         2.3519847657       -7.7689158081        0.6137972702
 C         3.3645738802       -6.4945062995        2.3574830611
 C         2.3269190634       -6.9442465896        3.4640521320
 C         1.7407046389       -8.4037438659        3.2956861430
 O         2.4769575578       -9.3325920435        3.6024029958
 C         0.3107524289       -8.6940382279        2.8374026692
 C         0.4397012042       -9.4240223396        1.4201758617
 O        -0.2287024972       -8.8940481599        0.5152832039
 C         1.2030444927      -10.7622811794        1.2963010981
 C         0.6847324982      -11.7131142762        0.2302131605
 C         1.5041626191      -11.6953136453       -1.0790939564
 O         2.3116474255      -10.7696748655       -1.3153370569
 C         1.4364234949      -13.0402537574       -2.0529981816
 C         0.5822249663      -12.6636478910       -3.3138604971
 O        -0.6272082045      -12.7785723518       -3.2994609989
 C         1.2279840949      -12.0511022193       -4.5975540207
 C         0.1400917601      -11.2371859736       -5.3090891718
 C        -0.2592741312      -10.0229502829       -4.4845276806
 O         0.2906243579       -9.7435302142       -3.4501828250
 C        -1.5311850356       -9.2196212351       -5.1229191330
 C        -0.8666029498       -7.9934700297       -5.7758576003
 O        -0.0441347215       -8.1657015464       -6.6324361368
 C        -1.3507348032       -6.4813970008       -5.4123686768
 C        -0.8128580855       -5.4642611832       -6.4846784244
 C        -2.0161124248       -4.4778567978       -6.8415033647
 O        -2.7927161969       -4.1848054880       -6.0117843628
 C        -2.1209580808       -3.4974867057       -8.1857059550
 C        -1.3732290768       -2.2291728087       -7.6258754428
 O        -0.2112453314       -1.9200299265       -7.9475537675
 C        -2.1524144438       -1.2022604588       -6.7066121811
 C        -1.3927463974       -0.0161011661       -6.0459650613
 C        -1.5967341457        1.2712887269       -6.7870426324
 O        -2.2698554052        1.2655726089       -7.8065287836
 C        -1.1404661759        2.6860582833       -6.2791856166
 C        -1.2054729390        3.8729613273       -7.4529516286
 O        -0.4199645503        4.8193132755       -7.3946165655
 C        -2.3302444831        4.0201641530       -8.5000828902
 C        -2.5996654317        5.4858492758       -9.0471446986
 C        -2.3907563724        5.6225776617      -10.5293001040
 O        -2.2779088839        4.6839291799      -11.3128383186
 C        -2.1319048137        7.1098070518      -11.1294667930
 C        -3.2349963282        7.4421224993      -12.0516398528
 O        -4.1714734356        8.0432183519      -11.5861343420
 C        -3.2550558241        6.9817523236      -13.4453095875
 C        -4.4032772070        7.5967171143      -14.2993891111
 C        -4.8292366241        6.8555856777      -15.4872131034
 O        -5.0399791920        5.6459443227      -15.4133390050
 C        -5.6492973170        7.6426928122      -16.7464401099
 C        -5.3395673150        6.8723842630      -18.1675715058
 O        -5.9153481521        5.8621716647      -18.4378554637
 C        -4.1213136923        7.3233987105      -19.1802788330
 C        -3.3975086737        6.0563742970      -19.5920128405
 C        -2.3358061479        5.6293478012      -18.5120273681
 O        -1.7497853954        6.4389363571      -17.8518894661
 C        -1.9706531991        4.0551279633      -18.4013473147
 C        -3.1580805616        3.4708458539      -17.4797669357
 O        -4.3013594717        3.6562048567      -17.7852588297
 C        -2.6130598129        2.7108354085      -16.1648393310
 C        -3.4372208569        1.7915642198      -15.3487115836
 C        -4.1884163330        0.5262440232      -15.8512606334
 O        -3.6902752623       -0.1022949545      -16.8043954595
 C        -5.6416573713        0.2830611074      -15.3062907781
 C        -6.3293845720        1.4088005470      -16.1643326051
 O        -6.4198507794        2.4945073025      -15.6160874793
 C        -6.8647043168        0.9212362650      -17.5343167774
 C        -7.3921229864        1.9839135033      -18.5450081885
 C        -8.6102999053        2.7119026288      -18.1997133711
 O        -8.5517675392        3.7759815992      -17.5595915634
 C       -10.0240931375        2.2807612555      -18.6956622562
 C       -10.1856810873        0.6810746334      -18.7757079994
 O        -9.1728247295        0.0583757661      -19.0792765670
 C       -11.5892341606        0.0336147223      -18.5225545336
 C       -12.3484261083       -0.3033346284      -19.8170967134
 C       -13.7901546048       -0.7799856445      -19.6633877022
 O       -14.2107699279       -1.5869286615      -18.8490583777
 C       -14.8079429335       -0.4620618446      -20.9883486713
 C       -15.3792605967        0.9629289146      -20.5056978507
 O       -15.0932161942        1.1621060789      -19.3585506822
 C       -16.1098793106        1.9400864660      -21.3999738818
 C       -14.0610929681       -0.2986717842      -22.2781799681
 C       -15.7908274176       -1.6570784776      -21.1704722210
 C       -11.1466743950        2.9976355536      -17.8777014469
 C       -10.1194551233        2.7534486454      -20.2702326458
 C        -6.0919061110       -1.1706391352      -15.4843786653
 C        -5.7954150597        0.6780033877      -13.7505387963
 C        -1.7173656059        3.3499632647      -19.6514001162
 C        -0.5771225191        4.0760970019      -17.6373323351
 C        -7.1053327489        7.5819928767      -16.3378279016
 C        -5.2109875470        9.1962137679      -16.8552488591
 C        -2.0884101843        8.1551530270       -9.9710818901
 C        -0.7310694961        7.0676246402      -11.7408398652
 C        -2.0810181759        3.1461241271       -5.2298719946
 C         0.3442188668        2.6683780105       -5.6951808088
 C        -1.3181796311       -4.0303122872       -9.4712166564
 C        -3.5597971921       -3.1575778944       -8.7481652489
 C        -2.1691295750      -10.0868979908       -6.2158992187
 C        -2.5906411964       -8.9169957246       -4.1059297212
 C         2.9007210571      -13.3951189010       -2.3400748858
 C         0.8523678302      -14.2431630955       -1.2516096639
 C        -0.4751736302       -9.5622799090        3.8538825170
 C        -0.4989326320       -7.3651574089        2.5683390980
 C         4.8149455991       -4.9483784526        0.1113794066
 C         2.3532857836       -5.0146778074       -0.3702593057
 H         6.0958299204       -7.1695366500       -1.4683592095
 H         5.5663649739       -6.3232143360       -2.8774938873
 H         5.0229956153       -8.0045784090       -2.6689330880
 H         3.6296279394       -5.4481246817        2.4814228797
 H         4.3017901352       -7.0897364475        2.5501715886
 H         1.4511820070       -6.3021555347        3.7341151435
 H         2.9391251724       -6.8922097930        4.3948676166
 H         1.1205016854      -11.2309569264        2.3358829085
 H         2.2205563117      -10.6969002783        1.1825123402
 H        -0.3115860038      -11.6190894100       -0.2181329140
 H         0.8083742466      -12.7135451638        0.7077863641
 H         1.4894736442      -12.8350034881       -5.2665345619
 H         2.0689552668      -11.4070626182       -4.4162999652
 H        -0.7166272232      -11.8300742516       -5.5080623214
 H         0.4386160828      -10.9055628880       -6.2940205883
 H        -0.9864634982       -6.0725282620       -4.3956432397
 H        -2.3870049032       -6.2982462566       -5.3564474436
 H        -0.4227357773       -6.0180596153       -7.4137554769
 H         0.0158277614       -4.8548437803       -6.1876362072
 H        -2.5829215128       -1.6860108382       -5.7957269832
 H        -2.9833022902       -0.8528147963       -7.2422925943
 H        -0.2634238082       -0.2099007577       -5.9999998510
 H        -1.6868176286        0.1800934497       -4.9531438002
 H        -3.3358201988        3.5871874769       -8.3360624238
 H        -2.0615322454        3.3700954269       -9.3385256135
 H        -1.9191843216        6.1920170570       -8.5851620287
 H        -3.5824313468        5.9118630262       -8.7567023595
 H        -3.1539304583        5.9042308211      -13.3623117129
 H        -2.3865433566        7.0891339193      -14.0944867004
 H        -4.2278002127        8.6286912918      -14.4468427816
 H        -5.2118334381        7.5321807574      -13.6369625489
 H        -3.3659509648        7.9433406586      -18.6166935004
 H        -4.4732787799        7.9260485763      -19.9519503040
 H        -2.7989295525        6.2067545524      -20.5505919734
 H        -4.0913850876        5.2471766975      -19.8278528836
 H        -2.2380083629        3.5739627662      -15.5077070656
 H        -1.6650277667        2.1931939103      -16.4408966191
 H        -4.1010443065        2.5005334579      -14.7811227141
 H        -2.7314877282        1.4728144900      -14.5059821952
 H        -7.5997875248        0.1782757688      -17.3534020621
 H        -6.1643408971        0.3439044274      -18.2186033824
 H        -7.5235282298        1.5497849298      -19.4874314069
 H        -6.6153258307        2.7188468229      -18.7846081674
 H       -12.1361133458        0.6883310120      -17.9392877869
 H       -11.4794711451       -0.8483746174      -17.8014348208
 H       -11.7895894762       -0.9663271473      -20.4445549485
 H       -12.3854960308        0.6602359734      -20.3211232453
 H       -16.4665227264        1.5241911058      -22.3188670420
 H       -15.5719071580        2.9865767187      -21.4850818377
 H       -16.9817305743        2.1597488356      -20.8205510346
 H       -13.1756150549       -0.9441140050      -22.2265264655
 H       -13.6048428327        0.7634887634      -22.3437271385
 H       -14.7330706401       -0.3558020949      -23.1867270961
 H       -16.4530050221       -1.7909842715      -20.3311223392
 H       -15.1292246720       -2.5997119832      -21.2717754055
 H       -16.3173830497       -1.6457034804      -22.1742971462
 H       -12.1236077631        2.9287751872      -18.2625461866
 H       -10.9263547344        4.0252284319      -17.7749164385
 H       -11.2010575047        2.5056542205      -16.9221371610
 H        -9.3980462788        2.1611413424      -20.8705062444
 H        -9.9940677675        3.8840922701      -20.2533898553
 H       -11.1137404467        2.4529356438      -20.5203320286
 H        -7.1149168694       -1.3023027887      -15.2846784102
 H        -5.4981866976       -1.8208567080      -14.8323359193
 H        -5.7908491243       -1.4431948243      -16.4845299778
 H        -5.0657496849        0.1470206154      -13.0897732061
 H        -6.7012374966        0.2603208207      -13.3344824252
 H        -5.7889837032        1.7499243970      -13.5823931707
 H        -1.9827479746        3.9637439595      -20.5052543094
 H        -2.3899549273        2.5211665622      -19.7494127215
 H        -0.7175135102        2.9639162160      -19.7527070514
 H         0.2121989597        4.5871120925      -18.2887084110
 H        -0.2200082898        3.0759287980      -17.5115449997
 H        -0.5109661542        4.4931775651      -16.5835995176
 H        -7.2028999941        7.7447858631      -15.2746784713
 H        -7.6543160932        6.7324635650      -16.6691994236
 H        -7.6162474695        8.3979414788      -16.8814507073
 H        -4.3390674483        9.3317765914      -17.4117013088
 H        -4.9462184038        9.7673248055      -15.9902123942
 H        -6.0109183214        9.7064893151      -17.4432352750
 H        -1.5310778085        7.8676781440       -9.1240862425
 H        -3.1033126224        8.3523849762       -9.6215374677
 H        -1.6361732493        9.1243580004      -10.2434542969
 H        -0.7120763377        6.3614086809      -12.6031502374
 H        -0.0333050260        6.4920679181      -11.1107246301
 H        -0.2852291445        8.0296149957      -11.8454480431
 H        -3.0605080125        3.4924633665       -5.6497725909
 H        -1.7423875150        4.0072757565       -4.6749495724
 H        -2.3874640625        2.3967141867       -4.4099626289
 H         0.7228487885        3.6862606754       -5.4291093976
 H         0.9780687014        2.1305503936       -6.3231132774
 H         0.2716752441        2.2456636224       -4.6609234473
 H        -1.6159361557       -5.0607098314       -9.8141987450
 H        -0.2928275835       -4.1766004410       -8.9606201823
 H        -1.4793854752       -3.1848220674      -10.1694064353
 H        -3.9414741251       -4.1224526410       -8.9634416404
 H        -3.3245115740       -2.6583938177       -9.7180298634
 H        -4.2442114656       -2.6811764762       -8.0993734070
 H        -2.5083502990      -11.1468187037       -5.8635844871
 H        -1.4813668860      -10.3429022139       -7.0430382491
 H        -3.0013568034       -9.4993161266       -6.6153907766
 H        -2.2032673055       -8.2455986022       -3.2847634923
 H        -2.9785152202       -9.8270580955       -3.6758558136
 H        -3.3982279501       -8.5324669231       -4.6985158797
 H         3.4360341194      -12.6762802689       -2.9783526645
 H         2.8751996425      -14.2475042835       -3.0315742981
 H         3.3441751859      -13.6767740138       -1.4619473117
 H         0.8473625959      -15.1522706659       -1.8970056502
 H        -0.1511030039      -14.0344476699       -0.8587618936
 H         1.4167429705      -14.5423248021       -0.4572250601
 H        -0.9066055572       -8.9400268042        4.5915081155
 H         0.2034167085      -10.2189619598        4.4129941664
 H        -1.2436785997      -10.1922378571        3.4365550408
 H        -1.5969246426       -7.6230702573        2.4851938137
 H        -0.2085386474       -7.1034458368        1.5306684113
 H        -0.2822262032       -6.5754990004        3.3095819412
 H         5.4480444883       -4.7184971720       -0.7803164694
 H         5.4825858877       -5.3523275274        0.8948733400
 H         4.4605141552       -3.9377635656        0.4188307515
 H         2.3464531056       -4.2802943233        0.4243486488
 H         1.3976900929       -5.5735210464       -0.4967442936
 H         2.4302012586       -4.4447957173       -1.2653404796
 Na        1.3707753017       -8.6551425364       -1.3812519098
 Na       -6.4062985990        4.2308876362      -16.7413726486
