232

 C         5.2654403957       -7.1617478651       -2.2736158191
 C         3.8779731633       -6.7507354865       -1.7785667870
 O         2.9314654478       -7.3577389841       -2.3205065821
 C         3.7393615125       -5.9255331028       -0.5460385679
 C         3.1276640466       -6.8360033730        0.5957465581
 O         2.3439649889       -7.7140941132        0.2350933790
 C         3.4993765653       -6.7980446590        2.1211086053
 C         2.3636171893       -6.7156835418        3.0573540415
 C         1.8424895380       -8.1541399354        3.0791429223
 O         2.5705728928       -9.0241029702        3.4469716125
 C         0.1968680617       -8.5173834968        2.6501428881
 C         0.1745542028       -9.2391075924        1.2327904820
 O        -0.1663061083       -8.6050168641        0.2180208733
 C         0.7600100097      -10.6708186436        1.1055556839
 C         0.3708950141      -11.5167492820       -0.1150554042
 C         1.4976783421      -11.7357352488       -1.2175931290
 O         2.2330095787      -10.7475444252       -1.4773478279
 C         1.6047967326      -12.9431629254       -2.1232806494
 C         0.7086667543      -12.5322803740       -3.4193190896
 O        -0.4317272236      -12.8586314294       -3.5960480049
 C         1.4103654355      -11.5547506907       -4.2933141042
 C         0.4346293823      -10.7623767799       -5.2253368653
 C        -0.3960624387       -9.6964696425       -4.4229807210
 O         0.0234955548       -9.4597250026       -3.2970704471
 C        -1.5925210951       -8.8750581589       -4.9185809396
 C        -0.9387023970       -7.7492470289       -5.8205672442
 O        -0.1285350333       -7.9765879972       -6.6781603200
 C        -1.1591659551       -6.2904317844       -5.3912138578
 C        -0.8607921056       -5.3540980559       -6.5464147489
 C        -2.0900276770       -4.4176944445       -6.8213784505
 O        -3.0056574851       -4.3454017386       -6.0450629166
 C        -1.9540907959       -3.4876070075       -8.0145661244
 C        -1.1710197232       -2.1426221951       -7.6395188939
 O        -0.2177078095       -1.7346896727       -8.2024265143
 C        -1.6885212299       -1.3199359985       -6.4512274295
 C        -0.8373692511       -0.1165211294       -6.2521352627
 C        -1.2998358776        1.1205443530       -7.0272579204
 O        -2.1679929934        1.0369783656       -7.8896563396
 C        -0.8897027100        2.4797381008       -6.3796338387
 C        -1.1273577295        3.7787624394       -7.2569309401
 O        -0.5924678422        4.8278866816       -6.9339012179
 C        -2.0547246766        3.8219591678       -8.4729607266
 C        -2.3654107789        5.2617382212       -8.9023088678
 C        -2.4344728546        5.3984887536      -10.4041518792
 O        -2.6469163758        4.5021621051      -11.1934693050
 C        -2.3032465282        6.9499762832      -10.8929106510
 C        -3.6182674295        7.2143783462      -11.7588954099
 O        -4.5219382588        7.9520976688      -11.3906564105
 C        -3.6517066147        6.5737409583      -13.1585894010
 C        -4.5623423809        7.3758736611      -14.0565916819
 C        -4.8379644270        6.7246244717      -15.4263795370
 O        -4.8827630989        5.4911986331      -15.5794365647
 C        -5.4546141709        7.5825939057      -16.5676201494
 C        -5.3291828410        6.7348302975      -17.9784098871
 O        -6.0472172973        5.8793636408      -18.3834867488
 C        -4.2156951010        7.0997675533      -19.0855302697
 C        -3.5337305527        5.7971263780      -19.3765508769
 C        -2.3463282021        5.4993201303      -18.4462041382
 O        -1.8143533071        6.3352044260      -17.8026183633
 C        -1.8719477635        3.9916316677      -18.3566111477
 C        -2.9979703541        3.2682741086      -17.4680135268
 O        -4.1530763561        3.5390853265      -17.7651506659
 C        -2.5776603661        2.3609012669      -16.2567377840
 C        -3.7462907352        2.0030486369      -15.4107352821
 C        -4.4454572060        0.6811960717      -15.8035850634
 O        -3.9078229076        0.0309351527      -16.7074132911
 C        -5.8142794466        0.2236330088      -15.1602025302
 C        -6.8666187999        1.1838392210      -15.9049252357
 O        -7.2193774828        2.1895591143      -15.2768513294
 C        -7.3503785121        0.6787827767      -17.1998611988
 C        -7.5250963346        1.8573495478      -18.2740846277
 C        -8.8168856584        2.7428989836      -17.9431685041
 O        -8.7484943065        3.8055986872      -17.3498798014
 C       -10.1564616976        2.2521255335      -18.5495988679
 C       -10.1137303839        0.6302170235      -18.6290760938
 O        -9.1903882335        0.0123983749      -19.0859403833
 C       -11.4532098702       -0.0230364548      -18.3432244318
 C       -12.2838773025        0.1217148120      -19.6650865920
 C       -13.4559434475       -0.7165739797      -19.7985676622
 O       -13.8673813454       -1.5278062087      -19.0031905745
 C       -14.4455014164       -0.2037134003      -20.9889046799
 C       -15.1964903156        1.1176062507      -20.6907137822
 O       -14.9417466978        1.8201123983      -19.7307685427
 C       -16.3034569043        1.6908457722      -21.5895193666
 C       -13.5950111191       -0.0738849524      -22.3335738417
 C       -15.6096375503       -1.2239488906      -21.1481606376
 C       -11.2569815189        2.7762027164      -17.6489360997
 C       -10.2560552645        2.7654462210      -19.9590642706
 C        -5.8918077093       -1.2976787768      -15.5499740765
 C        -5.8280156291        0.5013108905      -13.6872213583
 C        -2.1275387986        3.2992724559      -19.8835436567
 C        -0.3943646155        3.9630608611      -18.0127071358
 C        -7.0127037678        7.7141652702      -16.5052851092
 C        -4.9155871122        9.0343106688      -16.7387727190
 C        -2.3484071529        7.8508415195       -9.6829295604
 C        -1.0698385864        7.1939624415      -11.8018890528
 C        -1.8800174327        2.5486479426       -5.1893505817
 C         0.5290872674        2.4401087889       -5.8653662590
 C        -1.1045337830       -4.1552783855       -9.2493954012
 C        -3.2263726894       -2.8958787212       -8.6715348362
 C        -2.6320154064       -9.6607936760       -5.7845008691
 C        -2.4262386302       -8.2278868701       -3.7558223691
 C         3.1006079427      -13.2805871000       -2.4573197558
 C         1.2470565665      -14.3132323336       -1.3586193625
 C        -0.1568580477       -9.5395347771        3.7746967021
 C        -0.7247648319       -7.2736510453        2.6196021204
 C         5.0332796914       -5.2360239689       -0.0431879630
 C         2.7501684264       -4.8200804975       -0.9006813986
 H         5.7939630246       -7.8704731347       -1.6477602145
 H         6.0498307788       -6.3630027601       -2.2944312299
 H         5.0464308885       -7.6483934364       -3.2936463541
 H         4.2921355987       -6.0133019924        2.3183936286
 H         4.1765279883       -7.7270931388        2.2145135516
 H         1.4962212957       -5.9999845074        2.8621583722
 H         2.6321151275       -6.5486736704        4.1063457067
 H         0.6156880629      -11.2014638735        2.0598214198
 H         1.7490854013      -10.4335428645        1.2586909870
 H        -0.4275808114      -10.9557272503       -0.5101530322
 H        -0.0015017541      -12.4875995039        0.2158291314
 H         2.1001467266      -12.0653689092       -4.9235139393
 H         1.9702197606      -10.8151178306       -3.7190887787
 H        -0.0889253898      -11.3739602441       -5.9144517539
 H         1.0698841997      -10.1353419408       -5.8644278998
 H        -0.3552843583       -6.0639480223       -4.6230892615
 H        -2.1101952584       -6.0535941637       -5.0608189057
 H        -0.5358988442       -6.0353643404       -7.3938246334
 H        -0.0299077812       -4.7998382893       -6.2482878423
 H        -1.5418291054       -1.9412282016       -5.5831838197
 H        -2.7008463415       -1.1948181161       -6.3766956651
 H         0.1786024227       -0.2679477841       -6.7045022309
 H        -0.6302679579        0.2891404339       -5.2250126342
 H        -3.0220107333        3.2633491086       -8.1706618099
 H        -1.7485988904        3.3124794263       -9.3008049740
 H        -1.7610349048        5.9487715709       -8.3630395526
 H        -3.3618977511        5.6660370549       -8.6460369850
 H        -3.9039302107        5.5129525219      -13.3314232571
 H        -2.6839106070        6.4596483359      -13.6465354463
 H        -4.0630582449        8.3387307993      -14.1608353623
 H        -5.4722663299        7.5926521047      -13.5241905544
 H        -3.4040262776        7.8384191309      -18.7124755168
 H        -4.6678006940        7.5127591078      -19.9511754231
 H        -3.2574705430        5.8448823289      -20.4941842169
 H        -4.2862116538        4.9822921079      -19.3373086201
 H        -1.8603857235        2.9968828366      -15.6719072396
 H        -2.0556929415        1.4747467306      -16.5365582906
 H        -4.4567611342        2.8632596394      -15.4204790141
 H        -3.2978951409        1.9869279971      -14.3791119944
 H        -8.2739513822        0.1385302967      -17.0752049882
 H        -6.7499648653       -0.2162084416      -17.6411635829
 H        -7.5433495851        1.6183686023      -19.2979253273
 H        -6.6216003827        2.4706957565      -18.1866875377
 H       -12.0092944878        0.3261967118      -17.5465149765
 H       -11.3980122251       -1.1647767211      -18.2836507492
 H       -11.7231924773       -0.1685998561      -20.5340465082
 H       -12.6947198526        1.1289341975      -19.8419150865
 H       -16.2687752205        1.4451369661      -22.7036460993
 H       -16.3170964809        2.7854435698      -21.5666606435
 H       -17.2404118395        1.3369568408      -21.1367040052
 H       -13.1342801019       -1.0169178929      -22.5571450449
 H       -12.9619505492        0.7863198208      -22.2854695010
 H       -14.2919470994        0.1778002642      -23.1787468317
 H       -15.6280579418       -1.7967318793      -20.2356918157
 H       -15.3918641202       -1.9881649956      -21.9603861239
 H       -16.4941013048       -0.6737952710      -21.4475469951
 H       -12.2754182760        2.4488298604      -17.9168948349
 H       -11.2088306928        3.8169071586      -17.6935712925
 H       -11.1893571551        2.5018144286      -16.5959292635
 H        -9.3698951616        2.3211175250      -20.4951495680
 H       -10.0431497442        3.8725898092      -20.0022522766
 H       -11.1941907271        2.3999330235      -20.2459942280
 H        -6.8578411982       -1.7067670072      -15.3230995740
 H        -5.1603919013       -1.8046239087      -14.8939083598
 H        -5.6136447767       -1.4605690468      -16.5898328427
 H        -5.0117418503        0.0021578456      -13.1994783296
 H        -6.7336722683        0.0599086276      -13.2927048526
 H        -5.8428182096        1.5574085740      -13.4079867337
 H        -2.1267574604        3.9500930100      -20.7900830398
 H        -3.0036698896        2.6703294796      -19.9996663653
 H        -1.1587431792        2.6621672363      -20.1376938702
 H         0.1473138392        4.6720013915      -18.6577107063
 H         0.0704183325        3.0124263612      -18.0995003554
 H        -0.2332810285        4.2294493061      -16.9292611738
 H        -7.1594629734        8.5223169843      -15.8323737311
 H        -7.6721982653        6.9125913671      -16.2463833812
 H        -7.2630165898        7.9711966342      -17.5767469976
 H        -3.9219530038        9.1791694711      -16.2860447375
 H        -5.5346364324        9.8437341864      -16.3646840272
 H        -4.7957534216        9.3160062681      -17.8095201007
 H        -1.4716576014        7.9063804169       -9.1053919712
 H        -3.1491444763        7.5867640402       -9.0143613912
 H        -2.4219523348        8.9262947319       -9.9772050378
 H        -0.7684884659        6.1885731572      -12.2534083524
 H        -0.1694731648        7.5228636996      -11.2382992642
 H        -1.2773363633        7.9598302441      -12.5277894589
 H        -2.8992018466        2.5062183634       -5.4098242461
 H        -1.8251843201        3.5022547547       -4.7656288531
 H        -1.6310055186        1.8814126508       -4.3139979303
 H         0.9346683118        3.4037834848       -5.6556514007
 H         1.1917929175        1.9651230440       -6.5688753315
 H         0.5482168203        1.8753636410       -4.9994610624
 H        -1.4003875660       -5.2798373719       -9.2433911004
 H        -0.0546352156       -3.9495864989       -8.9182662696
 H        -1.1790677800       -3.5849600517      -10.1778730214
 H        -3.2575861382       -3.4350256008       -9.6059470312
 H        -2.9209758829       -1.8039673268       -8.9825134194
 H        -4.1508323769       -3.0416911821       -8.0864857218
 H        -3.0175344905      -10.5822126574       -5.1734762157
 H        -2.0225629161       -9.9700472027       -6.6800524167
 H        -3.3964443590       -9.0284703171       -6.1590487571
 H        -1.6889416083       -7.7728431067       -3.0605358392
 H        -2.9480447084       -9.0744599046       -3.3345332117
 H        -3.1750673979       -7.4929948724       -4.1255104765
 H         3.7877783675      -12.3971527579       -2.6378504890
 H         3.0807851569      -13.9325751289       -3.3882063004
 H         3.4933456866      -13.7590718323       -1.6256967987
 H         1.8665978157      -15.1526149856       -1.7340215294
 H         0.1674850813      -14.5980829491       -1.2373134070
 H         1.5890434189      -14.0817450408       -0.3566024238
 H        -0.1745727266       -9.1057769778        4.7745247189
 H         0.4693486366      -10.4329606473        3.7731333520
 H        -1.2351215970       -9.7740001676        3.7416182427
 H        -1.7778636199       -7.6113217110        2.6611444646
 H        -0.5768291149       -6.8477721726        1.6363529555
 H        -0.5594489257       -6.6003253793        3.4707016252
 H         5.3964586105       -4.4290294265       -0.6517771647
 H         5.8641659650       -5.9417129656       -0.0618086203
 H         4.9670363330       -5.0820571849        1.0270208126
 H         2.3951006666       -4.3617749455        0.0314692929
 H         1.8594781662       -5.2139663579       -1.4648747872
 H         3.2148493176       -4.1426708001       -1.5912154608
 Na        1.1316694583       -8.6682594278       -1.4744094043
 Na       -6.6014082012        4.0740062054      -16.7307777100
