232

 C       -19.2552937403      -11.9862811633        0.9303268577
 C       -18.1771866496      -12.1963085267       -0.0605256340
 O       -18.0156977871      -11.3762345877       -0.9804910033
 C       -17.3194172907      -13.5419074869       -0.0772505728
 C       -15.9116595448      -13.1095440107       -0.6915439542
 O       -15.7414839074      -13.1548628331       -1.9036310480
 C       -14.6859480245      -12.8248086894        0.2175090232
 C       -13.4516564445      -12.2405662732       -0.5398437074
 C       -13.6497862073      -10.8497932636       -1.1457063734
 O       -14.6161673560      -10.2033627837       -0.9376401091
 C       -12.5816894534      -10.4147334412       -2.2900582692
 C       -13.4386504542      -10.5516451548       -3.5458113621
 O       -14.2423760822      -11.5125492492       -3.5939948497
 C       -13.2696001944       -9.7141726298       -4.8001700182
 C       -14.2950937771      -10.1851562120       -5.8264464217
 C       -15.6906745968       -9.7050130266       -5.7506398458
 O       -16.4945822536       -9.9259873083       -4.8703764925
 C       -16.2715420060       -8.7344614884       -6.9854874764
 C       -15.3794472755       -7.4921335769       -7.0339634374
 O       -14.7390926760       -7.2194808859       -6.0179666032
 C       -15.3000099527       -6.5629943818       -8.1937216648
 C       -14.0324023857       -6.6180206265       -9.1413615373
 C       -14.1967880177       -5.5286670310      -10.2731670008
 O       -15.3182582781       -5.3544268637      -10.7230185087
 C       -12.9013161161       -4.9520411076      -10.9208023165
 C       -12.1762593132       -3.8274717481      -10.0810091846
 O       -11.9752805459       -4.1272557218       -8.9195804913
 C       -11.9626196527       -2.4213307924      -10.4751998766
 C       -11.4309652077       -1.5515456971       -9.2362698147
 C       -10.3666175971       -0.5184744352       -9.6007668216
 O       -10.2012729993       -0.2497807552      -10.7961129301
 C        -9.6106654528        0.2542276860       -8.5467100516
 C        -7.9599422374        0.1688921044       -8.8219278573
 O        -7.1757482689       -0.6433387943       -8.4420869454
 C        -7.4702901100        1.2086741048       -9.8998627053
 C        -6.1580301574        0.6276904526      -10.4216437137
 C        -5.1269924010        1.6422137041      -10.8115509790
 O        -5.1959537396        2.8042933666      -10.4675015005
 C        -3.9056065314        1.2345796869      -11.7524912773
 C        -2.8609167351        0.3989334290      -10.7694751596
 O        -2.6144073801       -0.7781544246      -10.9326851890
 C        -1.8744386589        1.3171145999       -9.8285683750
 C        -0.4129308226        1.0516969465      -10.0750345630
 C         0.3154019083        1.2521841291       -8.7370708240
 O        -0.0781109309        2.1743761914       -8.0057091113
 C         1.5623529926        0.5309473307       -8.1547143928
 C         2.6627370557        1.7441043228       -8.5406342690
 O         3.3531421567        1.6596144744       -9.5005002756
 C         2.9183688275        2.8509013853       -7.4516865472
 C         3.9562937881        3.7747228345       -7.9077964773
 C         3.6522200608        4.6169345153       -9.1383361147
 O         2.5029875348        5.1488821977       -9.3325406064
 C         4.8382939710        5.0396808633      -10.0695034010
 C         4.2301626136        4.6810574452      -11.5174064574
 O         4.6297206009        3.6155600562      -11.9454317324
 C         3.2083998090        5.5218549924      -12.4051974286
 C         3.6655957484        6.6627192064      -13.3965126028
 C         4.0840772090        6.2038111659      -14.7660020303
 O         4.6975622331        5.1807443092      -14.9712440770
 C         3.8948997934        7.1217404753      -16.0213001418
 C         5.3395669943        7.2758944522      -16.6815594374
 O         5.4588462880        6.9633271088      -17.8738329607
 C         6.5160068815        7.7835732025      -15.8410871643
 C         7.8111835670        7.1978088635      -16.4208817526
 C         7.7836965435        5.5946749085      -16.2213338003
 O         7.5458040662        5.1490719389      -15.0543407515
 C         7.9588785173        4.5878955772      -17.4200208168
 C         9.3982877850        3.7909882070      -17.3155352510
 O         9.8610740650        3.5184544653      -16.2028594525
 C         9.9011269928        3.1145681329      -18.6382693655
 C        10.9089501524        1.9956911499      -18.2831738477
 C        10.2460567909        0.8682705214      -17.5494086402
 O         9.0690264599        0.7308287012      -17.6809348410
 C        11.1776021400       -0.2866203022      -17.0210609304
 C        10.8009152111       -0.5537410744      -15.4932385796
 O        11.6593793371       -0.8211738439      -14.6851901893
 C         9.3298592316       -0.5777421484      -15.0810533377
 C         8.9174275709       -0.3243404199      -13.5401294692
 C         7.6550515347        0.5370506392      -13.6317258583
 O         7.6742588288        1.7595395965      -13.5437025110
 C         6.1719157601       -0.1023966382      -13.6031346002
 C         5.4355101980        0.6000975491      -14.7669328177
 O         5.0029848783        1.7476514933      -14.7036229401
 C         5.1708410573       -0.2064986202      -15.9535688407
 C         6.3544725785       -1.6368609001      -13.7319030702
 C         5.5089594677        0.2755948676      -12.3048653218
 C        10.7751644397       -1.6185639851      -17.7094030153
 C        12.6345977641        0.0499884585      -17.1502275533
 C         6.8324738788        3.6006022754      -17.3940954971
 C         8.0625551055        5.3538300933      -18.6868432753
 C         2.9198107118        6.2044798776      -16.8804741438
 C         3.4143801388        8.5534667989      -15.7436997894
 C         5.1126073795        6.5293718322       -9.9431664013
 C         6.1159792395        4.2402869214       -9.8996318286
 C         1.5282390128        0.1923029655       -6.6156463987
 C         1.8614204964       -0.7537567536       -8.9427111998
 C        -4.2569255790        0.1196245863      -12.7330734258
 C        -3.3628853995        2.4343788268      -12.4519862626
 C       -10.1049019529        1.6608901075       -8.5783432476
 C        -9.6015865077       -0.2458479589       -7.0911411568
 C       -11.6807648345       -5.9825621226      -11.3269685201
 C       -13.3487820253       -4.1334912750      -12.2404811161
 C       -16.2513738589       -9.5145629429       -8.2535391375
 C       -17.7457931707       -8.2205965811       -6.5050742187
 C       -12.0203524851       -8.9588158381       -2.0325146759
 C       -11.3308877416      -11.2965227684       -2.4795408056
 C       -17.2059385193      -14.2720582733        1.2864363804
 C       -17.9279407810      -14.4522076601       -1.1845896720
 H       -18.8570104791      -12.3096241116        1.8680193057
 H       -20.1542255139      -12.5846013087        0.6667870297
 H       -19.5184574558      -10.9244032342        0.9396650430
 H       -14.3672014008      -13.7496669012        0.6714390529
 H       -14.9626742881      -12.0219810946        0.9240348035
 H       -13.1239265364      -12.9065033061       -1.3549019290
 H       -12.6906124673      -12.3739826478        0.2733753025
 H       -12.2503545551      -10.0210881730       -5.1306031444
 H       -13.2174875896       -8.5936938692       -4.7394421690
 H       -14.2933223062      -11.2518271681       -5.6448458734
 H       -13.8800602507      -10.0292686701       -6.7387183916
 H       -15.1937125005       -5.5331698186       -7.8413581692
 H       -16.2024454589       -6.6214704823       -8.7982948404
 H       -13.8807032435       -7.5910041192       -9.6587237390
 H       -13.1199488396       -6.4048687382       -8.5543695741
 H       -12.8377853771       -1.8976975988      -10.7487546848
 H       -11.1505156491       -2.2709176089      -11.2345767938
 H       -11.0476193870       -2.2612631539       -8.4430455764
 H       -12.2078377588       -0.9966642866       -8.6832909595
 H        -7.1164159510        2.2055031446       -9.4764709160
 H        -8.3451162631        1.4839420811      -10.5349764778
 H        -6.2859831577       -0.0360069528      -11.2372634807
 H        -5.7077854173       -0.0247173602       -9.7268856058
 H        -2.1993353426        1.0432424962       -8.8620423000
 H        -2.2343645869        2.3956205778      -10.0803829804
 H         0.0444933646        1.8081558183      -10.7200603268
 H        -0.2388163717        0.0303518103      -10.5016408380
 H         3.0427693578        2.5075481211       -6.4039009762
 H         1.9148066364        3.4474294743       -7.4201860296
 H         4.9093280884        3.2848642923       -8.0241508226
 H         3.9506916992        4.5981135026       -7.1552460391
 H         2.3267701133        5.9632902573      -11.9096931297
 H         2.7522138599        4.7066281314      -12.9659992695
 H         4.5596268650        7.1519377790      -12.9587712745
 H         2.9052247418        7.4626647946      -13.4605558049
 H         6.4508947751        7.5377010966      -14.7803542061
 H         6.6004999152        8.9038236599      -15.8747223325
 H         8.5782652400        7.6541306280      -15.8955498179
 H         7.9418882615        7.5293827615      -17.4607640817
 H        10.4025528013        3.8754106399      -19.2675910867
 H         9.0651133653        2.7062370693      -19.1687158328
 H        11.7788953936        2.3131706682      -17.7242514501
 H        11.3642359121        1.6617809049      -19.1966269081
 H         8.9515220917       -1.5750054120      -15.3327269944
 H         8.7931995991        0.2658396153      -15.5933977706
 H         9.7310060542        0.1740489962      -12.9641708884
 H         8.6100516215       -1.2442601298      -13.0935242099
 H         5.7943099047       -1.1150173801      -16.2135295178
 H         5.0720373133        0.4083798279      -16.7843532945
 H         4.2018822426       -0.6598220556      -15.7024737875
 H         5.4264397558       -2.1833269702      -13.7221084037
 H         6.9499590509       -1.9594708139      -12.9274435922
 H         6.8764396633       -1.9266592099      -14.6176810709
 H         5.5497758234       -0.4278362685      -11.4444198037
 H         4.4068567324        0.4868748090      -12.4901772231
 H         5.6841436518        1.2775545320      -11.7970794746
 H        11.1171429600       -1.4540807413      -18.7419499811
 H         9.7602838078       -1.9539653070      -17.5308409772
 H        11.3951115269       -2.3478413468      -17.2427413331
 H        12.9353737867        0.1078226744      -18.2181000509
 H        13.3194066439       -0.6322654690      -16.6050017504
 H        12.7520583602        0.9661437799      -16.5495793631
 H         6.8165483971        2.9287887793      -16.5468411551
 H         6.9115129391        3.0800768395      -18.3011240122
 H         5.8962788071        4.0775625852      -17.3531911503
 H         9.0545064289        5.6172548165      -18.8577404222
 H         7.3500028427        6.2104261857      -18.7833897385
 H         7.6296216498        4.8544227512      -19.5550149140
 H         2.0039114613        5.9314037858      -16.3010882245
 H         3.2832225527        5.2303569710      -16.9600842966
 H         2.7012951262        6.6494326065      -17.8745240081
 H         3.0435007115        9.0528959279      -16.7142292724
 H         4.2352353506        9.2018253855      -15.3156194423
 H         2.5001133508        8.6165818395      -15.1764324476
 H         5.6053680045        6.7395515653       -9.0196367159
 H         4.2250261844        7.2216970550       -9.9407685137
 H         5.7338576391        7.0393945738      -10.6717535168
 H         6.7647100303        4.6437706656      -10.5997366231
 H         5.8634088562        3.1980273239      -10.0477975638
 H         6.3894408858        4.2939034893       -8.9044340394
 H         0.8665778200        0.8366637094       -6.0116489926
 H         2.5515088602        0.2939732556       -6.1265993590
 H         1.0004291341       -0.7917592597       -6.6753191611
 H         1.0276262220       -1.4756546184       -8.7320566974
 H         2.7994474291       -1.3450185341       -8.6556433619
 H         1.8321764097       -0.6394538370      -10.0316647176
 H        -4.9303073035       -0.5800544593      -12.3922143316
 H        -3.4985710799       -0.2729562962      -13.2975317968
 H        -4.8401309587        0.6062747102      -13.5470220086
 H        -2.3581350525        2.2565611538      -12.7649248448
 H        -3.5441695537        3.3506991144      -11.8769536255
 H        -3.9242029730        2.7234453021      -13.3550449676
 H       -11.1806745890        1.5985582424       -8.2703483276
 H       -10.0212949721        1.9567930512       -9.5783547657
 H        -9.5607086175        2.2845229512       -7.8845384411
 H       -10.4200181653       -0.1069119417       -6.4412251312
 H        -8.8122378941        0.1616321185       -6.4774822970
 H        -9.4127349855       -1.3247230761       -7.1249452031
 H       -11.1823662665       -5.5408794101      -12.2414669544
 H       -12.1503711074       -6.9236448777      -11.5752603642
 H       -11.1093461906       -6.0956441631      -10.3808701629
 H       -13.9737007611       -4.7626957195      -12.8551382708
 H       -12.4724042999       -3.8659005282      -12.8276747416
 H       -14.0455632861       -3.3213873329      -11.9884057214
 H       -15.2721199838      -10.0037847646       -8.2252047664
 H       -16.4150248728       -8.7911008802       -9.0291358329
 H       -16.9380832699      -10.2798625749       -8.2616884393
 H       -17.5237548254       -7.7892748878       -5.5297117839
 H       -18.4581143697       -9.0381076055       -6.5682412902
 H       -18.1404814168       -7.4075178819       -7.2135800798
 H       -12.8334499617       -8.4352553234       -1.6201261072
 H       -11.7535988979       -8.5090831771       -2.9998286461
 H       -11.1690808792       -8.9853503864       -1.3204075486
 H       -11.6384964320      -12.2838748392       -2.8324423454
 H       -10.8368496326      -11.5863623297       -1.4903959820
 H       -10.5311378376      -10.9414015572       -3.0111010042
 H       -16.7759747310      -13.6449105590        1.9612918735
 H       -16.7594306211      -15.2120595201        1.2505897834
 H       -18.2594452016      -14.5643378510        1.5210406138
 H       -17.1914437913      -14.7062221400       -1.9343126126
 H       -18.7826715529      -14.0261522820       -1.7021027341
 H       -18.2665198192      -15.3573559567       -0.7617154439
 Na      -16.6439218956      -11.1630305006       -2.9544065571
 Na        6.0097897134        3.8150177540      -13.6643299232
