232

 C         5.5263745419       -7.3089850832       -2.7376451848
 C         4.1814988649       -6.9982053976       -2.0746838822
 O         3.2093067371       -7.4054479451       -2.6909732473
 C         4.0276580311       -6.1226836794       -0.8001676560
 C         3.3162303235       -6.8961297967        0.4422150313
 O         2.7175676214       -7.8936759241        0.1515466416
 C         3.3977825214       -6.4602047493        1.9237509915
 C         2.1007489330       -6.6885683486        2.7377312080
 C         1.6820633325       -8.2027039181        2.6249290345
 O         2.5053504198       -9.0307322728        2.6359671653
 C         0.2097477552       -8.5978832038        2.5279875372
 C         0.0452498598       -9.1907050832        1.1119777610
 O        -0.5029800059       -8.5997910993        0.1723174759
 C         0.7159077300      -10.5482766572        0.9905134613
 C         0.4059111341      -11.1924524100       -0.3179042209
 C         1.5620195206      -11.3689526522       -1.2908943909
 O         2.4362782347      -10.4627221119       -1.2868274443
 C         1.6302354823      -12.6822196248       -2.1303475907
 C         0.8550570877      -12.2733746495       -3.4878086912
 O        -0.1535224444      -12.8502387529       -3.7949015338
 C         1.3429745302      -11.0813708920       -4.3068279255
 C         0.1581392518      -10.4194834694       -5.0033067040
 C        -0.5215715529       -9.4465339468       -4.0246640527
 O        -0.1941029833       -9.3917717624       -2.8402682181
 C        -1.6870113292       -8.5866885097       -4.6421993804
 C        -1.0306498582       -7.4537348856       -5.6184832575
 O        -0.6291136857       -7.8524197140       -6.7023472450
 C        -1.1066888033       -5.9995198421       -5.4047400559
 C        -0.6950485771       -5.2395084476       -6.6844715573
 C        -1.8853806376       -4.3871660244       -7.1280042758
 O        -2.9084837121       -4.4089526813       -6.4010081741
 C        -1.8172764845       -3.4849820854       -8.2774964660
 C        -0.7405993547       -2.2532538157       -7.8672554183
 O         0.2174429964       -1.9663515200       -8.5246630557
 C        -1.1405036099       -1.6290102867       -6.5478645450
 C        -0.4495525754       -0.3126001766       -6.1595540788
 C        -1.0893960738        0.9613956095       -6.8697918136
 O        -1.6516018887        0.8232075556       -7.9237438549
 C        -0.8433124496        2.3938665745       -6.2025030343
 C        -1.0899829699        3.6634405819       -7.0983724854
 O        -0.5832639020        4.7234980201       -6.8301204134
 C        -2.0091254645        3.6601256551       -8.3641633364
 C        -2.2266551496        5.1710668359       -8.7556645663
 C        -2.6271974990        5.3826032401      -10.2261176032
 O        -2.6971114270        4.4981494963      -11.0453851846
 C        -2.7051928539        6.8857442745      -10.7362037643
 C        -4.0487944036        6.9561982782      -11.6108458703
 O        -4.9427582590        7.7318294428      -11.2917814745
 C        -4.1827404964        6.2559285221      -12.9639208061
 C        -4.2605999700        7.3018114344      -14.0950823383
 C        -5.0293532290        6.6796814882      -15.2147637990
 O        -5.2669769252        5.4625433026      -15.0486687679
 C        -5.4990840901        7.5745433928      -16.4078461469
 C        -5.3410662021        6.7850470558      -17.8759368669
 O        -5.9898399135        5.7963487770      -18.0178963158
 C        -4.2027937317        7.1414862771      -18.9613814503
 C        -3.4792243379        5.8447510669      -19.4984719746
 C        -2.4491700187        5.2047112579      -18.4629218289
 O        -2.0042313376        5.9021888681      -17.5632630515
 C        -2.2257552864        3.6049299062      -18.5070851123
 C        -3.2909538067        3.1534826070      -17.4680149537
 O        -4.4569751658        3.0930505423      -17.8029349692
 C        -2.7108553537        2.5579365563      -16.0949182658
 C        -3.7925486144        1.9612669297      -15.1428420698
 C        -4.3792623078        0.7330412027      -15.7333702071
 O        -4.0134502890        0.1895724490      -16.7392352611
 C        -5.6204477559        0.2087389025      -14.9224276729
 C        -6.5862539824        1.0923641214      -15.7257689834
 O        -6.7486092465        2.1842079967      -15.2068216801
 C        -6.9873695986        0.5600595333      -17.0658453135
 C        -7.3965978317        1.6292633340      -18.1627571869
 C        -8.6354491073        2.5667980715      -17.7715901402
 O        -8.5066983622        3.5403712264      -17.1153224307
 C       -10.0465267655        2.2018561436      -18.3208354218
 C       -10.3270535656        0.7042222512      -18.7409190734
 O        -9.5228174139        0.0940948853      -19.3829642898
 C       -11.6689064117       -0.0274424284      -18.4312066464
 C       -12.6697044748        0.4476210022      -19.6195248407
 C       -13.7298590116       -0.5828761142      -19.9650898225
 O       -13.7441795372       -1.6272993732      -19.3887973826
 C       -14.7047366183       -0.1913703434      -21.2052699728
 C       -15.2740422099        1.2770612086      -20.9673862275
 O       -14.5915390973        2.2209797714      -20.5419469664
 C       -16.6288562317        1.5909211013      -21.5106555389
 C       -13.8713375714       -0.1053959979      -22.5478257927
 C       -15.9099261767       -1.1620610877      -21.2478597375
 C       -11.2129142152        2.6932486965      -17.4748662364
 C        -9.9988721700        3.0917005687      -19.7046351276
 C        -5.9311785786       -1.3411038268      -15.2109290216
 C        -5.4709003610        0.5887487337      -13.3558982224
 C        -2.4618495362        2.9507523332      -19.8264524590
 C        -0.8074751905        3.4668924391      -17.9330416030
 C        -7.0926958644        7.8842340642      -16.3604885643
 C        -4.8010523391        8.9961538314      -16.5032758343
 C        -2.7256476553        8.0309765322       -9.7226344327
 C        -1.4032378905        6.9896097905      -11.7556934282
 C        -1.6462802457        2.6373146738       -4.8365749588
 C         0.6230072103        2.4686035679       -5.6932536121
 C        -1.3393146023       -4.1516086053       -9.5564759952
 C        -3.1782083266       -2.7954667660       -8.5359455526
 C        -2.5892044825       -9.5837795452       -5.5102984932
 C        -2.5125949415       -7.8862117881       -3.5925434547
 C         3.1054558253      -12.9082679430       -2.3297393028
 C         1.1173485804      -13.9483901039       -1.4757202185
 C        -0.1613155367       -9.5920494186        3.7028522706
 C        -0.8593705053       -7.4235654666        2.7391884821
 C         5.3444827282       -5.4997709968       -0.4104361475
 C         2.9558472250       -5.0509230429       -1.2166325810
 H         6.2312955935       -7.9381486454       -2.1848587290
 H         6.1349934983       -6.4187153955       -2.9394220222
 H         5.2910465797       -7.7735248590       -3.6879781047
 H         3.8328602585       -5.4158276824        2.1157875338
 H         4.2107667601       -7.1184277768        2.3958102755
 H         1.1960414264       -6.0421562500        2.5044759710
 H         2.3902867740       -6.5475864626        3.7605468028
 H         0.3425128371      -11.1147133666        1.8525884996
 H         1.7497515976      -10.5594299550        1.2157337427
 H        -0.3265079140      -10.7225243732       -0.9123811371
 H        -0.0115980503      -12.1823820862       -0.1070665752
 H         2.0059109028      -11.5125201206       -5.0640962993
 H         1.9744733449      -10.3319961225       -3.7527227235
 H        -0.5138033039      -11.1981756742       -5.3663711611
 H         0.4311117690       -9.7759696821       -5.8801057265
 H        -0.6083035250       -5.7375957495       -4.4410717826
 H        -2.1431040646       -5.9022066106       -5.3574504149
 H        -0.4830238150       -6.0291514608       -7.4837824765
 H         0.1955506174       -4.7307716792       -6.5012888014
 H        -0.8983953655       -2.3283814988       -5.7797496782
 H        -2.1663811214       -1.6584078887       -6.4084373987
 H         0.5215357380       -0.2481811411       -6.6126215706
 H        -0.3740500538       -0.1124869764       -5.0844824617
 H        -2.9985485158        3.1459275358       -8.2672421376
 H        -1.4542417152        3.1875805792       -9.0644060738
 H        -1.2667123516        5.6912194737       -8.7429486352
 H        -2.7353808520        5.7120869151       -7.9307544990
 H        -5.3005717207        5.9757323085      -12.9568411661
 H        -3.6205843621        5.3089834473      -13.0792923395
 H        -3.2416000971        7.7577950714      -14.2453116762
 H        -4.8508839769        8.1665659249      -13.6487798541
 H        -3.4750354697        7.7799960571      -18.3471193693
 H        -4.6973572319        7.7840077369      -19.6612920851
 H        -2.9982543227        6.1824726222      -20.4570600786
 H        -4.2450308179        5.1449124681      -19.8428878683
 H        -2.1369016844        3.2878037636      -15.5459384892
 H        -2.0546373875        1.8455304077      -16.4779088059
 H        -4.5221245733        2.7427986072      -15.0105530465
 H        -3.3075849160        1.7645345731      -14.1885979836
 H        -7.6662005163       -0.3194074281      -17.0949605023
 H        -6.0593371474        0.1052160401      -17.6085362477
 H        -7.6270418408        1.0792807516      -19.0470450792
 H        -6.5378090918        2.2913530199      -18.3024620686
 H       -12.0765004716        0.2811937805      -17.4986807659
 H       -11.4314308478       -1.1355716343      -18.4666834697
 H       -12.1064061643        0.6277245920      -20.5339357258
 H       -13.1224882445        1.4361750324      -19.3292051419
 H       -16.6134834203        1.3526544976      -22.6299907366
 H       -16.9186277169        2.5619907227      -21.5266803764
 H       -17.3387601535        0.9419634140      -20.9725584343
 H       -13.4292261229       -1.0445396539      -22.7553285825
 H       -13.1618640217        0.6143482294      -22.3962248529
 H       -14.5107207261        0.0979714369      -23.3961579339
 H       -16.7440481510       -0.8197636203      -20.6129066884
 H       -15.5017950203       -2.0497074466      -20.8060231648
 H       -16.2988726257       -1.3338935240      -22.1928502562
 H       -12.2057992698        2.7287910106      -18.0699690197
 H       -11.0597744513        3.7158205645      -17.1888250303
 H       -11.3843898912        2.2483959722      -16.4686800637
 H        -9.1464408964        2.6680842297      -20.2700768602
 H        -9.8279580758        4.1489023636      -19.4609632542
 H       -10.9446892945        2.9937458488      -20.1493854340
 H        -6.9656815804       -1.6196650907      -14.9833026126
 H        -5.1992727075       -1.9963973851      -14.7212484889
 H        -5.7850828916       -1.3981045941      -16.2933940562
 H        -4.5973557732        0.1767934864      -12.9940437900
 H        -6.3723567859        0.2850333987      -12.8075257862
 H        -5.3201355617        1.6845805160      -13.2277585880
 H        -1.5103527091        2.6931544311      -20.3689012790
 H        -3.0760834787        3.6001748403      -20.4782018908
 H        -3.0900038804        1.9852461573      -19.7812610654
 H        -0.2054565426        3.7503144792      -18.7309200080
 H        -0.4037315542        2.5046964118      -17.6266789372
 H        -0.6177298665        4.1852614687      -17.1670599527
 H        -7.4935090089        8.0748743249      -15.3763148189
 H        -7.6608418827        6.9855336783      -16.6783677149
 H        -7.2618733952        8.7933220909      -17.0703772280
 H        -3.6982989176        8.9929051419      -16.2832671251
 H        -5.3825113874        9.8218212462      -16.0434655231
 H        -4.7431199982        9.2595434880      -17.5693724372
 H        -1.8182662669        8.0206719258       -9.1164133183
 H        -3.5471766875        8.0563289529       -9.0018711658
 H        -2.8452516192        9.0482800725      -10.2337658225
 H        -1.6892066200        6.6735055039      -12.7418110217
 H        -0.5232366385        6.5171289544      -11.3414963192
 H        -1.2299752841        8.0036499212      -11.9633489953
 H        -2.6682953538        2.7455057456       -4.8933794724
 H        -1.2841548271        3.5726787649       -4.4654176152
 H        -1.4959374278        1.9221649183       -4.0121789284
 H         0.9812906538        3.3778602854       -5.2965228793
 H         1.2630306241        2.3039611306       -6.5866559051
 H         0.8363973587        1.6590314915       -5.1114759767
 H        -2.2025766193       -4.6192629401      -10.0529592920
 H        -0.5046062636       -4.7319517653       -9.3874160455
 H        -1.0566466801       -3.3479946729      -10.2229200434
 H        -3.9399512979       -3.5375659266       -8.3162150992
 H        -3.1741240954       -2.6314590566       -9.6377311928
 H        -3.3047761633       -1.7655955449       -8.1005098772
 H        -2.9674793975      -10.4380488191       -4.9851605204
 H        -2.0732232957       -9.6961451719       -6.4679406231
 H        -3.4483185025       -8.9907030893       -5.6689007532
 H        -1.9982601335       -7.0924900795       -3.0892624919
 H        -2.8013941404       -8.6410647431       -2.9138969421
 H        -3.2933621160       -7.3850855881       -4.1893323104
 H         3.5642666640      -11.9854529808       -2.7102594077
 H         3.2052362912      -13.8320977621       -2.9568920530
 H         3.6553046309      -13.1286848375       -1.4296919869
 H         1.0372953024      -14.7027664122       -2.2542949611
 H         0.1232881644      -13.8689464167       -0.9690573899
 H         1.8906708119      -14.2571305005       -0.7095569082
 H        -0.2043072933       -8.9602105546        4.6452197058
 H         0.6342122437      -10.3087900782        3.8672531093
 H        -1.1625068130      -10.0953751879        3.5841165417
 H        -1.8498751140       -7.7974165238        2.6301669809
 H        -0.7011131473       -6.5955152503        2.1188224077
 H        -0.7656970162       -7.1153540607        3.7578783921
 H         5.7035793353       -4.8519889652       -1.2049103868
 H         6.1403045014       -6.1389469012       -0.0168829543
 H         5.1100958138       -4.7855470630        0.4042556987
 H         2.5595093862       -4.5230682846       -0.3160578997
 H         2.0741462103       -5.4555540396       -1.7110324636
 H         3.5259012079       -4.3222847704       -1.8064969321
 Na        1.4161578807       -8.3329086030       -1.5033660506
 Na       -6.3003225037        4.0386209324      -16.5847249943
