232

 C         5.5825725729       -7.3010694394       -2.6357374522
 C         4.2071680414       -7.0778411583       -2.1033426732
 O         3.2223162892       -7.5998071967       -2.6635999556
 C         4.0734771962       -6.1366729320       -0.9010417620
 C         3.4597912010       -6.9524518275        0.2795690343
 O         2.9191146986       -8.0540323444        0.1319161057
 C         3.4490898635       -6.3165755805        1.6540686776
 C         2.1662332000       -6.4896369795        2.4515443343
 C         1.7665329977       -7.9627282351        2.5030221006
 O         2.5939327192       -8.8511918956        2.7645045259
 C         0.1872495820       -8.5530788648        2.5093611310
 C         0.0647194444       -9.1968565035        1.1577821429
 O        -0.2238493492       -8.4667827714        0.2217003160
 C         0.4282499736      -10.6524332363        0.9394993591
 C         0.2519581690      -11.1575579949       -0.5359843080
 C         1.5244834909      -11.3114031669       -1.2950791911
 O         2.3152377621      -10.4180790518       -1.2463821661
 C         1.8168752708      -12.6037296670       -2.1322998082
 C         0.9713273096      -12.2196748580       -3.4776288753
 O         0.0361631747      -12.8827591426       -3.8150466953
 C         1.4216728911      -10.9619463579       -4.2600699408
 C         0.2952943431      -10.1660377532       -4.9977691005
 C        -0.6641146712       -9.2510983185       -4.1372039271
 O        -0.3499688352       -9.0739888989       -2.9784234489
 C        -1.9225668121       -8.4367431100       -4.6566904091
 C        -1.1771489139       -7.5995493230       -5.7463811681
 O        -0.6789917779       -8.1053320433       -6.7262420789
 C        -0.9404335685       -6.0206768272       -5.4630034972
 C        -0.7254969799       -5.1443670660       -6.6933463159
 C        -2.0180299387       -4.3605773322       -7.0855469120
 O        -3.0964183294       -4.4193856613       -6.6180593370
 C        -1.8523100956       -3.4513409710       -8.3397459025
 C        -0.6137393917       -2.3383747128       -7.9786306289
 O         0.3514756034       -2.1525431195       -8.6484650269
 C        -0.8583464228       -1.6766759047       -6.5380668922
 C        -0.3424367008       -0.3014242858       -6.1097874587
 C        -0.9035419676        1.0378397305       -6.7690632473
 O        -1.5438646477        0.9972756294       -7.8087698749
 C        -0.6134559391        2.3655753625       -6.0864390658
 C        -0.9393832441        3.6819982860       -7.0057364502
 O        -0.3892754510        4.7069682036       -6.6659313429
 C        -1.9237767173        3.7175829173       -8.2548405440
 C        -2.3778498462        5.1153174295       -8.6540551481
 C        -2.7116180167        5.2939533092      -10.1565405844
 O        -2.9048016953        4.3788586928      -10.9485816040
 C        -2.7910362176        6.8621207062      -10.7437365954
 C        -4.2095943762        7.0660081814      -11.3768220983
 O        -5.1014216610        7.7279516658      -10.9333591614
 C        -4.3781135301        6.2167772571      -12.8225253380
 C        -4.1341959914        7.1031289550      -14.1023282898
 C        -5.0413421513        6.6040617956      -15.1812779698
 O        -5.6096310129        5.5517524333      -15.2783070288
 C        -5.3861227138        7.5778891190      -16.3744965140
 C        -5.1852224242        6.7871013751      -17.6686773372
 O        -5.7587330665        5.7225721169      -17.9546184535
 C        -4.0457475664        7.1524274608      -18.7042503513
 C        -3.6507807700        5.7798262307      -19.3295162262
 C        -2.6886902484        5.0920581217      -18.3949825644
 O        -2.2306273201        5.7164678477      -17.4755079871
 C        -2.3873832206        3.5121466680      -18.4743148297
 C        -3.2719845741        2.9140715627      -17.3396368633
 O        -4.4641777323        2.9032639941      -17.5701423150
 C        -2.6131563580        2.5800019342      -16.0235210153
 C        -3.5482820604        2.0614082319      -15.0212875519
 C        -4.1615360164        0.6899212030      -15.4568872345
 O        -3.8014447020        0.1483292874      -16.5132959552
 C        -5.5316418712        0.1395878079      -14.8550098216
 C        -6.5101826185        1.0931849426      -15.6484138761
 O        -6.7574442257        2.2411844217      -15.2276563154
 C        -7.0827661043        0.5076337333      -16.9207573083
 C        -7.4489116859        1.4978298166      -18.0451766739
 C        -8.6491583929        2.4027211804      -17.7995456396
 O        -8.5634510529        3.4781950825      -17.1150353538
 C       -10.0709377861        2.2233887967      -18.3829114845
 C       -10.3766709181        0.6899074459      -18.8541466614
 O        -9.5609315455        0.1229528011      -19.5746067395
 C       -11.8209472300        0.1607023844      -18.6295335555
 C       -12.7643671240        0.6380992104      -19.6676776941
 C       -13.8194295454       -0.3683087139      -20.1142269284
 O       -13.8284228952       -1.4436733368      -19.5717429830
 C       -14.8562626540       -0.1027177126      -21.3617794633
 C       -15.4044383366        1.4205900881      -21.2393827321
 O       -14.6728504760        2.3284114955      -21.0009086031
 C       -16.9016485702        1.5952495901      -21.3881260943
 C       -13.9704528428       -0.3518467790      -22.7158664703
 C       -16.0118737243       -1.2520705756      -21.1948351819
 C       -11.0174917101        2.7756106319      -17.2524816878
 C       -10.1121435147        3.0000615511      -19.6257197400
 C        -5.4754173829       -1.4541277131      -14.9757888701
 C        -5.6617013357        0.3194900929      -13.3277983100
 C        -2.7157327144        2.8064836238      -19.9382065400
 C        -0.8381780132        3.3994186154      -18.3255457151
 C        -6.9875546720        7.7004292087      -16.3464591691
 C        -4.7296376899        9.0473319732      -16.3362967130
 C        -2.6412349556        7.7936371861       -9.5014186486
 C        -1.6329492367        7.1933672469      -11.7720491066
 C        -1.6461069340        2.4335761552       -4.9166237231
 C         0.8607913703        2.5590888199       -5.6397258661
 C        -1.2892384300       -4.2561248337       -9.6200384729
 C        -3.0656855741       -2.6519936677       -8.7680153115
 C        -3.0235666292       -9.2536228479       -5.4392165838
 C        -2.4729457840       -7.6917288170       -3.4218367211
 C         3.2041856901      -12.8560378270       -2.7016093302
 C         1.0588336716      -13.9154592293       -1.5206054889
 C         0.1437143574       -9.5604745114        3.6799654745
 C        -0.9125489979       -7.4456527216        2.5836735765
 C         5.4365221715       -5.5617810427       -0.3188028018
 C         3.1862362783       -4.9125072252       -1.2750908912
 H         6.2741611448       -7.5990581632       -1.8548045860
 H         6.1102523147       -6.4056018727       -3.0362238735
 H         5.6115978214       -8.1317012981       -3.4065765664
 H         3.6201382234       -5.2551459914        1.6588394682
 H         4.3163703504       -6.6855482887        2.1765325155
 H         1.3632131737       -5.9076022522        2.0394740439
 H         2.4297294836       -6.2048369972        3.5280570390
 H        -0.1757765078      -11.2766945219        1.6839158767
 H         1.4956549475      -10.8084436557        1.2514345659
 H        -0.2868220095      -10.4085787078       -1.1668037228
 H        -0.3652953553      -12.0258012490       -0.6317199657
 H         2.1809478839      -11.1752053364       -5.0110500344
 H         1.9138029658      -10.2774675813       -3.6350953097
 H        -0.3637029466      -10.8161850731       -5.5742806868
 H         0.8118241144       -9.5360099356       -5.6849992601
 H        -0.0317973384       -6.1071039953       -4.9204151755
 H        -1.7889279153       -5.5673798267       -4.8074644134
 H        -0.3066456393       -5.6799954119       -7.5138671921
 H         0.0793700314       -4.3975870145       -6.3337644933
 H        -0.3367761141       -2.3080490919       -5.7506712358
 H        -1.9377178401       -1.8520753343       -6.2402618313
 H         0.7601444261       -0.2021490013       -6.3853945670
 H        -0.4809799350       -0.0899815534       -5.0292902511
 H        -2.7287950517        3.0078395224       -8.0330244065
 H        -1.2555780496        3.3459702285       -9.1531378940
 H        -1.5821676706        5.8333854010       -8.3981644974
 H        -3.2045967962        5.4168263020       -8.0403341944
 H        -5.3147944642        5.7765257509      -12.9648885968
 H        -3.5758769114        5.5025163057      -12.6212691090
 H        -3.1175774434        7.0977095889      -14.3490882849
 H        -4.2417408903        8.1347204296      -13.8835406816
 H        -3.2441854095        7.4110967351      -18.0788580673
 H        -4.2068860913        7.9646023134      -19.4229988325
 H        -3.2960466147        6.0366678314      -20.3311297132
 H        -4.5118627520        5.1102059884      -19.5681419375
 H        -2.0829708733        3.5213171800      -15.7423944170
 H        -1.8013949457        1.7856236735      -16.2227818040
 H        -4.3636816853        2.8248589431      -14.9444770406
 H        -2.9627564468        1.9693103610      -14.0695095769
 H        -7.9787258254       -0.0138605802      -16.5779728726
 H        -6.5599181685       -0.2408571176      -17.3972513887
 H        -7.5788714216        0.9191327582      -18.9695472272
 H        -6.6142767762        2.1930970559      -18.1191598007
 H       -12.0907125372        0.5529839756      -17.6307551934
 H       -11.7380748514       -0.9014878552      -18.5983930348
 H       -12.1797540206        1.0711380736      -20.4875020119
 H       -13.3133216104        1.4212240505      -19.2299409485
 H       -17.2555949405        1.1500184029      -22.2822924376
 H       -17.0494297304        2.7160004855      -21.6402382159
 H       -17.4434440778        1.2558917886      -20.5076708133
 H       -13.7255844599       -1.4222460290      -22.6666489173
 H       -12.9372388083        0.1363790484      -22.6053836585
 H       -14.5027309997       -0.2142049026      -23.6447441411
 H       -16.3872705701       -1.2877907495      -20.1856327305
 H       -15.4230407358       -2.1785796312      -21.4170620945
 H       -16.9881014581       -1.1177581725      -21.7963601138
 H       -11.9740130061        2.8554343754      -17.6198845107
 H       -10.8879504045        3.7934583084      -16.8897549526
 H       -11.0655093470        2.1447166823      -16.4021546732
 H        -9.3026214739        2.5855268658      -20.2449652111
 H       -10.0859749366        4.0767459672      -19.3274320406
 H       -11.1413095806        2.8766932621      -20.0835486074
 H        -6.4531866662       -1.7994605527      -14.6740341331
 H        -4.7430729763       -1.7270475245      -14.2102350023
 H        -5.1333080873       -1.8537824801      -15.9179372173
 H        -4.6012872820        0.2846295469      -12.8956278764
 H        -6.2665534298       -0.4535044503      -12.9078150995
 H        -6.0565225564        1.2881089427      -13.1088208664
 H        -1.9258641040        3.0131418882      -20.6437151309
 H        -3.6192391457        3.2139605724      -20.3293543810
 H        -2.9234879031        1.7465785664      -19.9186777530
 H        -0.2688090650        4.0486860847      -19.0927403375
 H        -0.4269373255        2.3968730856      -18.3677465447
 H        -0.5372931141        3.8301385484      -17.3409201728
 H        -7.4439538993        8.2869597767      -15.5209043706
 H        -7.3484577668        6.7073564182      -16.1913555328
 H        -7.3050826295        8.1594353441      -17.2284717738
 H        -3.7081632278        8.9247716633      -16.1530704392
 H        -5.2365573335        9.6961651583      -15.6400886789
 H        -4.7219370614        9.5242764483      -17.3211254930
 H        -1.6967687404        7.9945995016       -9.0112182870
 H        -3.3970444553        7.5664821372       -8.7563382809
 H        -3.1240829836        8.6652776544       -9.7870924977
 H        -1.5622407336        6.4683595669      -12.5778507946
 H        -0.7569666281        7.4290146240      -11.1745491654
 H        -1.9585653954        8.0233036032      -12.4146044233
 H        -2.4475700449        1.6539052112       -5.1540809309
 H        -2.1146532807        3.3691768605       -4.6260067584
 H        -1.3189775354        2.0286911780       -3.9679506550
 H         0.8865639242        3.4932098503       -5.0268429511
 H         1.5370086407        2.6997556800       -6.4203708648
 H         1.3278122404        1.8107345003       -4.9468078362
 H        -2.1350389420       -4.9038779534       -9.9767443343
 H        -0.2929557934       -4.7849405722       -9.2519410003
 H        -1.1120497649       -3.5623803681      -10.4832592259
 H        -3.9038263718       -3.3490784346       -8.6548833862
 H        -2.9375266430       -2.2565295886       -9.7923023790
 H        -3.1346223839       -1.7573065659       -8.1696505660
 H        -3.4538212337       -9.9010665332       -4.6039391358
 H        -2.5543929043       -9.7737482434       -6.2884008025
 H        -3.9070598548       -8.6277239332       -5.7145080873
 H        -1.5973521252       -7.2979620794       -2.8454695542
 H        -2.9374060847       -8.4387464080       -2.7532356136
 H        -3.0041758087       -6.8402722156       -3.7333001338
 H         3.6960852386      -11.9262307712       -3.0109866695
 H         3.1790264064      -13.6764066747       -3.3810214087
 H         3.7805913073      -13.2119549707       -1.8534673709
 H         1.6460350475      -14.8378442235       -1.7812041518
 H         0.0124859198      -14.0692197588       -1.8272818873
 H         1.1174089230      -13.8038536010       -0.4943984707
 H         0.4222103456       -9.1601406755        4.6424877926
 H         0.8634516479      -10.4160284629        3.5234224461
 H        -0.8576114056       -9.9905811176        3.6884183940
 H        -1.8985856310       -7.9369491941        2.4318969075
 H        -0.7784691847       -6.6674159140        1.7741807520
 H        -0.9075757423       -6.8863757318        3.5375908117
 H         5.8110932680       -4.6967666197       -0.9173479805
 H         6.1206609593       -6.3859026614       -0.4259459372
 H         5.5131570437       -5.1990106794        0.6896770221
 H         2.8406356629       -4.3795357769       -0.3991009614
 H         2.2677588842       -5.2540865770       -1.7985136571
 H         3.8231215529       -4.1997924577       -1.8172194281
 Na        1.2200686080       -8.3691075451       -1.6282380190
 Na       -6.4556910241        4.0128981112      -16.6249973019
