232

 C       -19.3193888849      -12.0078336443        0.9598905597
 C       -18.2076994449      -12.1267004995       -0.0798255347
 O       -18.0585394750      -11.2884650501       -0.8932310225
 C       -17.3639224782      -13.4751159844       -0.1307645055
 C       -15.9136728086      -13.1101293532       -0.6340157452
 O       -15.8080514883      -13.0823177414       -1.8325787399
 C       -14.7060788545      -12.6979616781        0.3318327529
 C       -13.4710627213      -12.2727268599       -0.5596292764
 C       -13.6319621560      -10.8720350868       -1.1070809358
 O       -14.5839093273      -10.1725645073       -0.8193939544
 C       -12.6110625291      -10.3198281963       -2.2298419046
 C       -13.3785878635      -10.5206632207       -3.5501106905
 O       -14.0599599784      -11.5491038200       -3.5290687017
 C       -13.3124487332       -9.6841618259       -4.7995230186
 C       -14.2331665624      -10.2570252507       -5.9438186346
 C       -15.6437941194       -9.6635043358       -5.7761731032
 O       -16.4706599045       -9.9659704738       -4.8579486558
 C       -16.1378294676       -8.7451700313       -6.9559958781
 C       -15.2854048548       -7.4584973466       -7.0112146715
 O       -14.6720624609       -7.0652636767       -6.0294058366
 C       -15.3715858493       -6.5906797225       -8.3072757812
 C       -13.9740350024       -6.5028334797       -9.0236810362
 C       -14.1389106660       -5.5771377195      -10.2598004719
 O       -15.2770309633       -5.3907760814      -10.6277163337
 C       -12.9135659283       -4.8969156377      -10.9549969367
 C       -12.2517854475       -3.9246603674       -9.9153269476
 O       -11.8984381431       -4.3442022150       -8.8555966015
 C       -11.9915107461       -2.4636906335      -10.4670454842
 C       -11.3815371587       -1.5408175033       -9.3883098123
 C       -10.2500449278       -0.5482736629       -9.8067672657
 O       -10.1683588902       -0.1452605482      -10.9161700249
 C        -9.4421970054        0.2560343490       -8.6510527098
 C        -8.0239792062        0.2148384915       -8.9787031950
 O        -7.2858972790       -0.5549455326       -8.3942479450
 C        -7.4196193055        1.2391306554       -9.9831199893
 C        -6.1486694300        0.6640902661      -10.5238071041
 C        -5.0820017037        1.6281221817      -10.8459904204
 O        -5.1869542269        2.7847278316      -10.4789856242
 C        -3.8303070973        1.1216209101      -11.6533407580
 C        -2.6824633521        0.4478427044      -10.8555844409
 O        -2.5534065725       -0.7483646967      -10.9077001586
 C        -1.8354198904        1.3048603530       -9.9383520228
 C        -0.3293964811        1.0131174044      -10.0180236617
 C         0.3243174002        1.3889192572       -8.6094364875
 O        -0.1332975590        2.2451678321       -7.9475144435
 C         1.6331437605        0.4970728160       -8.1797439896
 C         2.7255343559        1.5631752350       -8.3815658430
 O         3.3184279059        1.6309474392       -9.4354680967
 C         2.8172839097        2.7683196926       -7.4218036383
 C         3.9177588052        3.6659751147       -7.9313262666
 C         3.5965745442        4.6450062179       -9.1106605552
 O         2.4988783271        5.1069272278       -9.3140538469
 C         4.7659554647        5.0506476659      -10.0965695507
 C         4.2624357856        4.7573010476      -11.6309179591
 O         4.6705427856        3.6961480786      -12.0461759079
 C         3.2271399315        5.5387827805      -12.3170123936
 C         3.7422938196        6.6673570249      -13.2761191974
 C         4.2450328562        6.2280631811      -14.7273088137
 O         4.7730387958        5.1503122245      -14.9767635910
 C         3.8700943930        7.1104241531      -15.9765161080
 C         5.2190907414        7.3044018345      -16.6849152069
 O         5.4695870816        6.9666396694      -17.8214081779
 C         6.4678528611        7.7235138992      -15.7365607521
 C         7.7768117010        7.0926449033      -16.2919792411
 C         7.7806729100        5.5642533393      -16.1334764400
 O         7.5034135904        5.2063879667      -15.0053575601
 C         8.0702271008        4.6497705622      -17.4086263482
 C         9.3863265483        3.6505873677      -17.3078382693
 O         9.9505687631        3.4603343597      -16.2954542706
 C         9.8948481191        3.1174853969      -18.6260753266
 C        10.8492502744        1.9809568249      -18.4001182585
 C        10.1498110674        0.7826690771      -17.6740042649
 O         8.9288475110        0.6393787098      -17.5451341919
 C        11.1317896271       -0.2629038329      -16.9757936540
 C        10.8263383633       -0.5153468438      -15.3651790487
 O        11.7934477497       -0.8227560707      -14.7343094334
 C         9.2839468378       -0.5827364888      -15.1153204070
 C         8.9098476357       -0.2945445946      -13.6234156907
 C         7.6337493046        0.6578572712      -13.5630699442
 O         7.8393807381        1.8567292593      -13.6597728152
 C         6.2187102684       -0.0165967341      -13.5840911116
 C         5.4251168149        0.6288786584      -14.8704723649
 O         4.9707433655        1.7306378557      -14.7515583723
 C         5.1507782223       -0.2515329701      -16.2044655716
 C         6.2880969726       -1.5320379775      -13.8104702708
 C         5.4725893125        0.2772635035      -12.3033238375
 C        10.7665409847       -1.6054105949      -17.6681598159
 C        12.5642149336        0.0855971219      -17.2617912933
 C         6.8238760714        3.6296629783      -17.3196283281
 C         8.1587254172        5.4720751312      -18.8160837113
 C         2.9686563528        6.3168614722      -16.8407584294
 C         3.2668122191        8.5471879129      -15.6661888867
 C         4.9032884956        6.5860802904       -9.9469567505
 C         6.1067032312        4.3298656848       -9.7208648809
 C         1.5423361744        0.2249503650       -6.7128286121
 C         1.8251484254       -0.7686628444       -8.9692935644
 C        -4.2690614982        0.0222773958      -12.6968722227
 C        -3.3048375191        2.4089401532      -12.2478222365
 C       -10.0916307350        1.6821975802       -8.5776976844
 C        -9.5670578004       -0.3181559476       -7.1437196598
 C       -11.9521086923       -5.9944684639      -11.3060147137
 C       -13.5282082452       -4.2711688514      -12.2735520560
 C       -16.2003942888       -9.6317625890       -8.2581550540
 C       -17.6319808031       -8.3271135331       -6.5892388691
 C       -12.1089711045       -8.7900878463       -2.0578080977
 C       -11.3991249452      -11.2160272666       -2.3370995375
 C       -17.2810198021      -14.1218678904        1.2772697319
 C       -18.0864362145      -14.4114506385       -1.1496314973
 H       -19.0103107649      -12.4238701117        1.8876861047
 H       -20.2082843057      -12.5991350421        0.5660347578
 H       -19.6024928885      -10.9595604914        1.0546260463
 H       -14.4012589165      -13.5758307433        0.8681178705
 H       -15.0090642358      -11.8490948759        0.9647667997
 H       -13.2315282189      -13.0145029140       -1.3135866893
 H       -12.6593580743      -12.3140884954        0.1188867734
 H       -12.3050644928       -9.4786317093       -5.0822256310
 H       -13.7133211973       -8.6670600139       -4.5211629126
 H       -14.2687097054      -11.3736667110       -5.8065958914
 H       -13.7129857857      -10.0312423468       -6.9022277762
 H       -15.7319916958       -5.5367376887       -8.1786858519
 H       -15.9890101999       -7.0504564624       -9.0254169995
 H       -13.6624274865       -7.4883380801       -9.2939374934
 H       -13.1492775556       -6.0191608670       -8.3933372199
 H       -12.8948040791       -1.8542782402      -10.6685402741
 H       -11.2724412476       -2.4449972295      -11.3450325594
 H       -11.0721250732       -2.2738896897       -8.6023852362
 H       -12.0982216978       -0.9341417177       -8.8836003881
 H        -7.0976226853        2.2439418815       -9.5272557451
 H        -8.2008820844        1.5551432938      -10.7205671832
 H        -6.3762309034        0.2519155710      -11.4624945928
 H        -5.7487481852       -0.2328776945       -9.9953115148
 H        -2.3217013223        0.9510060809       -8.9477747717
 H        -2.1579275015        2.2647100835      -10.1521564218
 H         0.1289911387        1.5985865749      -10.8295034803
 H        -0.1849823171       -0.0015302718      -10.1954882726
 H         2.9364864646        2.4681225053       -6.3460488819
 H         1.7305516448        3.2265733159       -7.4560155129
 H         4.6638468437        2.9564784336       -8.3768212940
 H         4.3694170458        4.2721494756       -7.1726696171
 H         2.4783184090        5.9861652564      -11.6845067504
 H         2.5979304732        4.7485281090      -12.8649517909
 H         4.5285834709        7.1377263380      -12.7760745822
 H         2.9684168076        7.4292439606      -13.3874435142
 H         6.4346979997        7.3781691630      -14.6887751547
 H         6.5786222723        8.8328135687      -15.6373418187
 H         8.6194363301        7.4858746556      -15.7161640253
 H         7.9671696063        7.3734638959      -17.4325454241
 H        10.4252933240        3.9337192442      -19.1047800120
 H         9.0384526366        2.8039442936      -19.2903105831
 H        11.7834005983        2.2822852428      -17.8025134595
 H        11.2211859357        1.7062734336      -19.3381233911
 H         8.9747062451       -1.6463666637      -15.3098313278
 H         8.7638472175        0.1644790257      -15.7077407440
 H         9.7259286667        0.2143324318      -13.1940032473
 H         8.7611683917       -1.3166127458      -13.0981797832
 H         5.7888660902       -1.1129289051      -16.4195799913
 H         5.2085167625        0.4269652246      -17.0471787052
 H         4.0956902610       -0.7625209776      -16.1870994961
 H         5.2538932972       -1.7888460550      -14.1096732731
 H         6.4538905989       -2.0121898746      -12.8848829877
 H         6.9591545823       -1.9498060026      -14.5566995521
 H         5.5680148344       -0.4271666031      -11.4446889006
 H         4.3438830219        0.3804628061      -12.5220515856
 H         5.5849313430        1.2014836523      -11.8438890099
 H        11.1276789826       -1.4573503644      -18.6794474855
 H         9.6945769273       -1.8282634059      -17.5826298722
 H        11.2872299385       -2.4456866842      -17.1327134482
 H        12.5991739326        0.1096809458      -18.3612236031
 H        13.2310144743       -0.7639419590      -17.0242242410
 H        12.9870402035        0.9321748195      -16.6861940067
 H         6.7777550204        3.0653722809      -16.4299174773
 H         6.9109621039        2.9770546523      -18.2799731330
 H         5.8505082657        4.1509873390      -17.3663548406
 H         8.8742093093        6.2303750676      -18.9390949287
 H         7.1459694046        5.7413463215      -19.2447579207
 H         8.3693996904        4.7798945415      -19.5717654703
 H         2.0940599504        5.9993103118      -16.2850609921
 H         3.3336034679        5.3493626708      -17.0555396093
 H         2.7581476100        6.8553693214      -17.7321339878
 H         3.2729892711        9.1848491148      -16.5295595072
 H         3.9363615453        9.0089006877      -14.9688669653
 H         2.2646342290        8.5859947875      -15.3005693844
 H         5.3345462382        6.8583005636       -8.9816966374
 H         3.9105381617        7.1387201721       -9.9801717209
 H         5.5061531253        7.1421116786      -10.6073752370
 H         6.8144481431        4.9968042412      -10.2991217324
 H         6.0700958328        3.2759915868       -9.9532263592
 H         6.1867573437        4.3825001885       -8.6267667166
 H         1.0910927034        1.1083714248       -6.2389928517
 H         2.5741662735        0.1651314264       -6.1769882330
 H         0.7957423726       -0.6283038933       -6.6320161173
 H         1.0678255401       -1.5631754258       -8.6822729419
 H         2.7769807985       -1.1451933327       -8.6273341989
 H         1.8556782046       -0.7625104838      -10.0473733364
 H        -4.7413947972       -0.9052015809      -12.3700600598
 H        -3.4743962110       -0.1118614802      -13.4790094231
 H        -5.0389635987        0.4184876583      -13.3438973319
 H        -2.2878344236        2.3391991781      -12.5907785535
 H        -3.5851277018        3.2658452473      -11.6868410579
 H        -3.8969199786        2.6631437970      -13.1642140479
 H       -11.1234136162        1.3968657084       -8.3801516228
 H       -10.0569356429        2.2281993578       -9.5303128721
 H        -9.7050791190        2.2138865619       -7.6376999613
 H       -10.5108816676       -0.0592300584       -6.6392875234
 H        -8.8899375253        0.0361885715       -6.4003545640
 H        -9.5231384048       -1.3923787123       -7.1070473716
 H       -11.2922775022       -5.6532543329      -12.1308854770
 H       -12.5979268206       -6.8354022764      -11.6694349753
 H       -11.5061546206       -6.2608522614      -10.3303362913
 H       -14.2360913241       -4.9690743483      -12.7826767407
 H       -12.7415039982       -4.0085717981      -13.0393786704
 H       -14.1209918141       -3.4733416601      -11.9819617346
 H       -15.2279981219      -10.1237552006       -8.3410146485
 H       -16.4279393644       -8.9192428629       -9.0148478674
 H       -16.9241496033      -10.4666232455       -8.1313644137
 H       -17.5640242831       -7.7552945093       -5.6826879709
 H       -18.2741770694       -9.2256394073       -6.5962971158
 H       -18.0064239936       -7.6573625236       -7.4516410254
 H       -13.0078471101       -8.1792468014       -1.8568230448
 H       -11.6773891892       -8.4479482436       -2.9877804847
 H       -11.3731354153       -8.7375967674       -1.2767096785
 H       -11.7537880794      -12.1225624469       -2.6976443087
 H       -10.8136350737      -11.4679144591       -1.5157582624
 H       -10.6081104785      -10.8566002753       -2.9926915290
 H       -16.7078166962      -13.5109277959        1.9260757134
 H       -16.8913395736      -15.1144336424        1.2519860428
 H       -18.2877319412      -14.3925081966        1.5645357815
 H       -17.5813916224      -14.7424415327       -1.9968700725
 H       -19.0232552169      -13.9555091167       -1.4571321983
 H       -18.3945101678      -15.2906205611       -0.5559722815
 Na      -16.7462868815      -11.3734459865       -2.9341914261
 Na        6.1931822844        3.5919720186      -13.8698713143
