232

 C         5.9446777658       -7.4204837388       -2.7681254237
 C         4.5664412505       -7.0816625643       -2.3780616693
 O         3.5447658240       -7.4143770089       -2.9353231841
 C         4.4252066657       -6.0461125656       -1.0360141706
 C         3.6286581203       -6.8159619073        0.0753347425
 O         3.4146493303       -8.0293237387        0.0311991469
 C         3.3260949175       -6.0216850535        1.3332535731
 C         1.9319224232       -6.2695679757        2.0915158557
 C         1.8033512717       -7.6263707155        2.7426688744
 O         2.6829393758       -8.0770754650        3.4959047272
 C         0.5553983522       -8.5888061451        2.4965769771
 C         0.4431568690       -9.0678753658        1.1276295210
 O         0.3190258332       -8.3120986791        0.1377941726
 C         0.3501872086      -10.6159654495        0.9347890579
 C         0.0821079338      -11.1501419083       -0.5482639726
 C         1.3675549831      -11.3530645863       -1.3338706652
 O         2.4192772390      -10.7130651534       -1.0703941211
 C         1.5204763886      -12.3952561424       -2.4602232182
 C         0.5734189253      -12.0426254118       -3.6976472258
 O        -0.3588700338      -12.7220840575       -3.9965451356
 C         0.9293836149      -10.8322849152       -4.5130530994
 C        -0.1870653693      -10.0696038751       -5.1660072727
 C        -0.8327513250       -9.0289960485       -4.2389054643
 O        -0.2377280147       -8.5470201342       -3.2998596217
 C        -2.1920334674       -8.2508323873       -4.7222175417
 C        -1.6490259376       -7.3299116742       -5.9402744486
 O        -1.4702204974       -7.9323686564       -6.9451501934
 C        -0.9552610057       -5.8793627016       -5.7281786444
 C        -0.5660790283       -5.1060297439       -6.9928919197
 C        -1.7623799051       -4.1215442976       -7.4795045151
 O        -2.8390623367       -4.1365382422       -6.9697752831
 C        -1.4455271792       -3.1221773433       -8.7499432792
 C        -0.2357675582       -2.3236541566       -8.1747990004
 O         0.8462092808       -2.2960396104       -8.6820548354
 C        -0.5361912090       -1.5937681720       -6.8132841351
 C         0.0099820042       -0.2187817992       -6.4128505626
 C        -0.7086012205        0.9590880224       -7.0824454050
 O        -1.1601235066        0.9398016574       -8.1898316338
 C        -0.5212594910        2.3583000730       -6.1863286839
 C        -0.7293285532        3.7152060387       -6.9341013290
 O         0.0432999671        4.6510456028       -6.8469473041
 C        -1.9695671250        3.7404717076       -7.8773699185
 C        -2.4658393228        5.1159708721       -8.3049995378
 C        -2.8335553724        5.2230986911       -9.8308547236
 O        -3.0677962756        4.2410616266      -10.5308600665
 C        -2.8976440902        6.7683371462      -10.3265994497
 C        -4.3575292885        6.7541075799      -10.9821716315
 O        -5.2273671025        7.4367427688      -10.5095242232
 C        -4.5295187182        6.0527333994      -12.2989149984
 C        -5.0475706324        7.0377347558      -13.3376601032
 C        -5.2303250918        6.5073144096      -14.7717499733
 O        -5.4830214847        5.3174591744      -14.8120865380
 C        -5.2264857492        7.3640290100      -15.9995588864
 C        -4.8773883042        6.6075229088      -17.4441876402
 O        -5.3555526298        5.5299668378      -17.6953843826
 C        -3.7107974826        7.2093585953      -18.2517636113
 C        -3.1795176484        6.0450759948      -19.1467330741
 C        -2.7546916917        4.9152703892      -18.1241652318
 O        -2.2938190555        5.3021278014      -17.0761695070
 C        -2.8441188219        3.3645391339      -18.4881351782
 C        -3.4233229248        2.7051754441      -17.1765227370
 O        -4.5996922025        2.3413908911      -17.2710372662
 C        -2.5620845699        2.4719498493      -15.9517642675
 C        -3.2908198928        1.7932559854      -14.7377302444
 C        -3.8524297277        0.5210354482      -15.2099230377
 O        -3.1735113037       -0.3454062406      -15.7604020105
 C        -5.3450663534        0.0427222210      -14.7256312765
 C        -6.4079143563        0.9032113839      -15.3690347731
 O        -6.4266828794        2.0683991588      -14.9281208941
 C        -7.4556868756        0.3804963538      -16.4117705617
 C        -7.6282943781        1.1086551416      -17.7438022402
 C        -8.7241332759        2.1627347910      -17.7064409072
 O        -8.5168578576        3.2539118732      -17.2687331837
 C       -10.1689534465        2.0403035274      -18.3449555406
 C       -10.5893889055        0.7798357979      -19.2038990120
 O        -9.7396585327        0.2836477654      -19.9471698269
 C       -12.0942776350        0.3299888219      -19.1403674013
 C       -12.9639237358        0.4210334634      -20.5245996066
 C       -14.3213904820       -0.2681959966      -20.3567228186
 O       -14.6403666673       -0.9655589401      -19.4071473109
 C       -15.2606775209       -0.1071878418      -21.6088273451
 C       -15.6893717306        1.3970693360      -21.7498496523
 O       -14.9072979176        2.1944983690      -22.2096272132
 C       -17.0139584590        1.7621305192      -21.0241726215
 C       -14.5083322193       -0.4434300645      -22.9408446074
 C       -16.4666764771       -1.1401977352      -21.6455541776
 C       -11.1036090451        2.3224096415      -17.1282432929
 C       -10.3294663218        3.0682716379      -19.4220964698
 C        -5.4911764384       -1.4395811963      -15.0806713834
 C        -5.4169749429        0.2088861563      -13.0663399849
 C        -3.6807443648        3.1564684101      -19.7174421696
 C        -1.3368099402        3.0220321724      -18.6136803873
 C        -6.8053032855        7.8876877134      -16.2812141925
 C        -4.4797380615        8.6166307576      -15.7597028770
 C        -2.9027768363        7.8207291565       -9.1971188553
 C        -1.7064928194        7.1025983698      -11.3810514683
 C        -1.5759924299        2.2066645363       -5.0699792284
 C         0.9233503608        2.4805521466       -5.5037441206
 C        -1.1404134646       -3.7735569002      -10.0572324250
 C        -2.7052372303       -2.1685005629       -8.8269443828
 C        -3.1988663099       -9.3053378773       -5.2027910497
 C        -2.8054176370       -7.4727648723       -3.5330812732
 C         3.0165284266      -12.1983573939       -2.9372817311
 C         1.1876241356      -13.7025289843       -1.7697643017
 C         0.6398390419       -9.7172918017        3.5894311996
 C        -0.7486869979       -7.7111734805        2.7319751505
 C         5.7754759576       -5.8196764524       -0.4494992317
 C         3.7188571258       -4.6268575831       -1.5638576528
 H         6.6550166099       -7.7160016024       -1.9599906698
 H         6.2960267424       -6.5119852022       -3.2287053044
 H         6.1795854456       -8.1709628199       -3.4680159274
 H         3.3196993149       -4.9673059233        1.1427725443
 H         4.0305137588       -6.2251419406        2.0899113269
 H         1.2013116397       -6.1850873906        1.3004402380
 H         1.7730301893       -5.5779332484        2.8611663066
 H        -0.4616384281      -10.9955401175        1.5157197892
 H         1.3912884510      -11.0552518149        1.2018189311
 H        -0.4890798451      -10.4403165030       -1.2028274192
 H        -0.5633573240      -12.1046509740       -0.4993569729
 H         1.6758005913      -11.1700925663       -5.2344600124
 H         1.5267905719      -10.1517455975       -3.8459814159
 H        -0.9569232134      -10.8369999302       -5.3186550350
 H         0.0391761284       -9.5676133225       -6.1406320757
 H        -0.0398481154       -6.2585803094       -5.0988459436
 H        -1.5963208764       -5.3592793478       -5.0405125788
 H        -0.2692586245       -5.8020526164       -7.8638270496
 H         0.2685409247       -4.4689440423       -6.8261077406
 H        -0.2609881594       -2.2942851542       -6.0000711061
 H        -1.6566959362       -1.3520406347       -6.8382580334
 H         1.0452518226       -0.0876842150       -6.5796822830
 H        -0.2913497090       -0.0207824864       -5.3944223717
 H        -2.7162551105        3.2303753750       -7.4171990972
 H        -1.7738109986        3.2128239708       -8.7965410352
 H        -1.6560773537        5.8696589895       -8.2293774775
 H        -3.3811879175        5.3973447192       -7.7205528452
 H        -5.2993309538        5.2514760349      -12.3390022501
 H        -3.6673009908        5.6854147477      -12.7498561777
 H        -4.4418229102        8.0009396803      -13.2327593051
 H        -5.9817156891        7.3327267456      -12.8806044143
 H        -2.9679864746        7.4756516494      -17.5023648919
 H        -3.9639139118        8.1931647845      -18.7246865359
 H        -2.3079586113        6.3477779884      -19.6421912854
 H        -3.9151078016        5.7854844662      -19.8943294091
 H        -2.1582058346        3.4901097235      -15.7077394643
 H        -1.6693538864        1.9561949983      -16.3307045902
 H        -4.0233218596        2.3423453804      -14.1354850794
 H        -2.4322886552        1.5825179103      -14.1148130634
 H        -8.4780478671        0.3507361796      -16.0094020750
 H        -7.1608579231       -0.6123230542      -16.7038610673
 H        -8.0604435226        0.3694410007      -18.5029800441
 H        -6.6741131730        1.4976417321      -18.1651773193
 H       -12.6033274351        0.6860491813      -18.2311944893
 H       -12.0462759295       -0.7460228479      -19.0313814195
 H       -12.5253567688       -0.1550846051      -21.2831033941
 H       -13.2115293876        1.4589517409      -20.9363962888
 H       -17.8564872916        1.4378973357      -21.5195791242
 H       -16.9876638766        2.8773830476      -20.8288221552
 H       -17.0899567013        1.3725951723      -20.0344075455
 H       -14.1658368364       -1.5347185536      -22.8309229287
 H       -13.6346601092        0.2296499364      -23.1580461086
 H       -15.1705405230       -0.2770366185      -23.8192788830
 H       -16.9081443111       -1.2885732058      -20.6150722119
 H       -16.1636942969       -2.0916116211      -22.0765169528
 H       -17.1540423863       -0.7418381362      -22.4061856555
 H       -12.1220103277        2.5405462159      -17.2861829206
 H       -10.6735786550        3.1995039112      -16.6280438991
 H       -11.1315588014        1.5728770616      -16.3936411162
 H        -9.5368642692        2.9379102904      -20.1586790335
 H       -10.4980306777        4.0444267761      -18.9862381744
 H       -11.2059166659        2.7031447672      -20.0424453854
 H        -6.4816226826       -1.8509046271      -14.8006783491
 H        -4.7124322473       -1.9987322730      -14.6277821412
 H        -5.3731260361       -1.4640632986      -16.1556123996
 H        -4.4521807509        0.0249001048      -12.5935715191
 H        -6.1802222403       -0.5088512743      -12.6606513956
 H        -5.7457963395        1.2415409782      -12.9458293142
 H        -2.9990194400        3.1773273913      -20.5202020571
 H        -4.3493762274        3.9692863596      -19.8849123583
 H        -4.1401731669        2.2611687984      -19.6851446440
 H        -1.0467485179        3.6618231477      -19.4593987817
 H        -1.1796060464        1.9683376082      -19.0553912871
 H        -0.6668944435        3.3129105397      -17.7945343805
 H        -7.1801693289        8.3994233463      -15.4267688990
 H        -7.4316413548        7.0438109231      -16.5956580643
 H        -6.8128052090        8.6054463098      -17.0694798189
 H        -3.4120855452        8.4048984556      -15.6902257412
 H        -4.6701247784        9.0153447388      -14.7730889505
 H        -4.7764749017        9.3267757115      -16.4601755822
 H        -1.9291750863        8.0579910551       -8.7727516449
 H        -3.5047806451        7.4531306126       -8.3862935686
 H        -3.3152062071        8.7458355706       -9.5844796450
 H        -2.0470383647        6.7321508438      -12.3351256932
 H        -0.6626840277        6.7801949345      -11.2352744319
 H        -1.6522977334        8.2200555686      -11.3037304495
 H        -2.5845648443        2.5813535739       -5.4002181075
 H        -1.3711745233        2.8872275232       -4.1484271890
 H        -1.7100484862        1.1697447254       -4.7395579039
 H         1.1031668303        3.4808177092       -4.9909816316
 H         1.7705774282        2.3469664630       -6.1962987007
 H         1.2098202677        1.7316635145       -4.6409533583
 H        -2.0424043692       -4.1139500124      -10.4842771393
 H        -0.4776852529       -4.6544025412      -10.1289949178
 H        -0.8339122664       -2.8946648456      -10.6588704982
 H        -3.5570797913       -2.6702062356       -9.3331229364
 H        -2.5267529041       -1.2910246744       -9.3215558651
 H        -3.0491824830       -2.0350207952       -7.8029632357
 H        -3.1319578034      -10.1049816116       -4.5519267593
 H        -2.9747749136       -9.5951541796       -6.2309104122
 H        -4.1493962787       -8.7051526358       -5.1621758012
 H        -1.9901278244       -6.9896988528       -3.0501614761
 H        -3.4251862900       -8.0761439601       -2.8240717523
 H        -3.5920648381       -6.7968004967       -3.9253163155
 H         3.1895731977      -11.1928896168       -3.1208270770
 H         3.2478756414      -12.7096164049       -3.8326119777
 H         3.6322655249      -12.5822571015       -2.0609268605
 H         1.2681164074      -13.5576202522       -0.7271757047
 H         1.8314748777      -14.4755865889       -2.0357138046
 H         0.0974990935      -13.9038596674       -1.9290431266
 H         0.8354114632       -9.1644477228        4.5283245482
 H         1.4499222514      -10.3835910966        3.4084865197
 H        -0.2447628814      -10.3349603944        3.6139936187
 H        -1.6458137738       -8.2141406167        2.2797769896
 H        -0.7503981420       -6.6784314688        2.2874805681
 H        -1.0010106102       -7.5989950046        3.8333890957
 H         6.3317086226       -5.1138919142       -1.0459626401
 H         6.4009498319       -6.7259592919       -0.3767998436
 H         5.6753264384       -5.3853563379        0.5528103665
 H         3.4422960204       -4.0123105886       -0.6709115063
 H         2.9459895830       -4.8326194192       -2.2626975254
 H         4.4982379689       -4.0722930205       -2.1214101360
 Na        1.7188814810       -8.4710377049       -1.7783867753
 Na       -6.4233088472        3.8837982386      -16.5783575954
