232

 C         6.2401848537       -7.1397291113       -2.9732011816
 C         4.8859526212       -6.9469743204       -2.3134474798
 O         3.9689279535       -7.6193178211       -2.7797186843
 C         4.6532832333       -5.9896285372       -1.1509142365
 C         3.6383193719       -6.5954348702       -0.0394330290
 O         3.2153517883       -7.7113510915       -0.1348742951
 C         3.2989059305       -5.7360785783        1.1318166703
 C         1.9146955393       -6.0897117623        1.7628549424
 C         1.9911775137       -7.4987378501        2.6246559474
 O         2.8835789017       -7.7296194031        3.3749736264
 C         0.6926495545       -8.5662687354        2.4917614946
 C         0.5851159917       -9.1522736873        0.9724624353
 O         0.5378325262       -8.3569789405        0.0704869335
 C         0.5029505438      -10.6246143948        0.7907278681
 C         0.2963413264      -11.0663080068       -0.6446447870
 C         1.5789556684      -11.4235280797       -1.4770893113
 O         2.3992671864      -10.5712050543       -1.5934592674
 C         1.4987150413      -12.6092463989       -2.5421184204
 C         0.3199581606      -11.8554299385       -3.4000598294
 O        -0.8809558145      -11.9718335627       -3.1611361283
 C         0.7208940627      -10.8702729307       -4.5270599998
 C        -0.4970069336      -10.0580674774       -5.0994118673
 C        -0.7218702303       -8.6278555314       -4.4773692441
 O         0.1022728072       -8.1475384572       -3.7313172901
 C        -2.0962635725       -7.9884396130       -4.8399779722
 C        -1.7984634580       -7.3150442670       -6.2270505052
 O        -1.8496741361       -7.9370495985       -7.2842853454
 C        -1.4091580024       -5.8219002634       -6.1175255147
 C        -1.1376000805       -5.2491426116       -7.4677927338
 C        -1.8472243817       -3.7787862997       -7.8280405930
 O        -2.8579727133       -3.5658226205       -7.1702338458
 C        -1.2156140886       -2.8202436676       -8.8206474277
 C        -0.1383429222       -2.0373649730       -8.1129284157
 O         0.9170953231       -1.8761562335       -8.6908246922
 C        -0.3424755956       -1.5398930751       -6.6181613270
 C         0.5745684255       -0.2562036146       -6.4244534788
 C        -0.2319417583        0.9976869826       -7.0061037690
 O        -0.9578191528        0.7865693152       -7.9579412864
 C        -0.2695964055        2.3282609204       -6.0845338211
 C        -0.5877373872        3.4756829989       -7.1137495009
 O         0.3736587993        4.0946018712       -7.5189176078
 C        -2.0575838340        3.6527657211       -7.5934698802
 C        -2.3282148154        5.1080352387       -7.9899702963
 C        -2.8418059048        5.3382003018       -9.4615055996
 O        -2.8855428287        4.3565572516      -10.1668320734
 C        -3.0405173695        6.8280871879      -10.0014629756
 C        -4.4841732864        6.8752354300      -10.7303847237
 O        -5.5023771127        7.2651893080      -10.1584498037
 C        -4.6989394055        6.1852520764      -12.0916708255
 C        -5.3886350143        7.1050614437      -13.1068550801
 C        -5.4330059592        6.3683514055      -14.4808303386
 O        -5.5308272582        5.1704022625      -14.6058276237
 C        -5.3891051958        7.3194920387      -15.7779713727
 C        -4.7382607060        6.6260529299      -16.9125416058
 O        -5.3159528293        5.6577233160      -17.4118183581
 C        -3.4087392474        7.0559652405      -17.4623377668
 C        -2.7881510327        6.1486882187      -18.5499930083
 C        -2.4741172831        4.8413812968      -17.8922242959
 O        -1.7835049951        4.7981616015      -16.8880371001
 C        -2.8593000961        3.3640893184      -18.4317357269
 C        -3.5699957705        2.5977909995      -17.3459963884
 O        -4.7491605726        2.3561368724      -17.3674709612
 C        -2.6572405824        2.1285298324      -16.1406864785
 C        -3.4930689865        1.6313934198      -14.9632474445
 C        -4.0705855828        0.1919425147      -15.2742063212
 O        -3.4083374517       -0.7030418848      -15.7007423421
 C        -5.5646163463       -0.0693242234      -14.8367653281
 C        -6.8562955928        0.7684503390      -15.4547607840
 O        -6.9231031721        1.9567356275      -15.1422281535
 C        -8.0439948988        0.1031941095      -16.0476053027
 C        -8.1349335639        0.5835129036      -17.5278069519
 C        -8.8690338960        1.9469248984      -17.8268665855
 O        -8.3595543516        3.0661430581      -17.5603269110
 C       -10.3769989338        1.9125104126      -18.1676893078
 C       -10.7060634134        0.8025844037      -19.2271474954
 O        -9.8036536305        0.2848021181      -19.8343642046
 C       -12.1473134983        0.5580798543      -19.3988689550
 C       -12.6977664522       -0.3624523017      -20.5509593288
 C       -14.2936968938       -0.2389143444      -20.5487130963
 O       -14.8698539896        0.0885396957      -19.5223137830
 C       -15.1633283886       -0.1462002944      -21.9001055389
 C       -15.5901221239        1.4269088853      -21.7635789385
 O       -14.9806256471        2.1881673718      -22.5034091651
 C       -16.6160160127        1.9273151397      -20.8061623496
 C       -14.3688493761       -0.4882429431      -23.1934558140
 C       -16.3976999452       -1.0868032840      -21.6707009578
 C       -11.2596456837        1.7713540446      -16.8789821238
 C       -10.8579046756        3.2494775910      -18.8952574026
 C        -5.7990999374       -1.5131424356      -14.9456531558
 C        -5.6259001864        0.1495360870      -13.2288396610
 C        -3.8904458232        3.3373441673      -19.6833201415
 C        -1.6355256651        2.5785757946      -18.9728495596
 C        -6.9040032950        7.4809863870      -16.1441451926
 C        -4.7869749610        8.6805643128      -15.5875720314
 C        -3.2001541359        7.9081976496       -8.9770088606
 C        -1.9324043172        7.1501201548      -11.0445720229
 C        -1.4588176856        1.8265378303       -5.1590952017
 C         1.0226997979        2.5967831174       -5.3635340945
 C        -0.5196656084       -3.6886110735       -9.9621741449
 C        -2.3724950760       -1.9626369461       -9.4210726486
 C        -3.2230457232       -9.1238304455       -4.8792183634
 C        -2.5575106142       -6.9939137304       -3.7664006178
 C         2.9462287570      -12.7983553629       -3.2126846337
 C         1.0557340424      -14.0385335677       -1.9823272298
 C         0.9431730870       -9.7605986265        3.4694419174
 C        -0.7028053109       -7.9500756788        2.7999686718
 C         5.9780646379       -5.7001875845       -0.3294562456
 C         4.1045217884       -4.7230156284       -1.7323294281
 H         6.7006380757       -8.0776134464       -2.8905649576
 H         7.0032353292       -6.3682454058       -2.8540959042
 H         6.1764156180       -7.1692553359       -4.0989516305
 H         3.1777234826       -4.6979510691        0.9367848544
 H         3.9515321000       -5.8655281583        1.9531718428
 H         1.1370564705       -6.0335690295        1.0754880336
 H         1.7221386780       -5.2758017755        2.4518430079
 H        -0.3982786048      -10.9077804511        1.3634875612
 H         1.4273781656      -11.0357061926        1.1581090816
 H        -0.1537598399      -10.1217518031       -1.1146042254
 H        -0.4673143006      -11.8517766372       -0.7758380109
 H         1.0649866706      -11.4724365190       -5.4062796494
 H         1.5234927639      -10.1963597567       -4.2069318492
 H        -1.4072165489      -10.6690132887       -5.1128071641
 H        -0.1546426944       -9.8551547160       -6.1272069686
 H        -0.5932030341       -5.7170743952       -5.4384751219
 H        -2.2428150678       -5.3717347526       -5.5168864546
 H        -1.5962686163       -5.7725888794       -8.3053557454
 H        -0.0444186589       -5.2465354423       -7.6848906748
 H         0.1282812912       -2.2734354705       -5.9007974168
 H        -1.3836927843       -1.3422316613       -6.3454284723
 H         1.4345916652       -0.4085090669       -7.0877685772
 H         0.9659207103       -0.0668068989       -5.4626811418
 H        -2.7670797708        3.3016792564       -6.8264265252
 H        -2.1528851501        2.9114968917       -8.3239954679
 H        -1.3774843367        5.6672344164       -7.8441408301
 H        -3.1583428681        5.4996538872       -7.3607732318
 H        -5.2157488059        5.2619734465      -11.9038454414
 H        -3.8208495514        5.7676070517      -12.6998749420
 H        -4.7333442632        8.0052511745      -13.1210352128
 H        -6.4060897266        7.3479465202      -12.7732999071
 H        -2.7473271717        7.2509487400      -16.6466381344
 H        -3.5406998187        8.1234595798      -17.8464837227
 H        -1.8342694686        6.4839938912      -18.8496691533
 H        -3.4526266101        6.0557151646      -19.3773149853
 H        -1.9889749287        2.9571059955      -16.0068952549
 H        -1.9558744381        1.3165492062      -16.5088637163
 H        -4.2175179859        2.3007088145      -14.5284891300
 H        -2.9213205241        1.3527191962      -14.0928862818
 H        -8.9114946776        0.3803802102      -15.4070445391
 H        -7.9565068297       -0.9569026801      -16.1280130231
 H        -8.6920194871       -0.2311233884      -18.0660647433
 H        -7.1501533889        0.5981209493      -18.0693715667
 H       -12.5753152447        1.5896033153      -19.4572844511
 H       -12.5266562457        0.2151261560      -18.4609916773
 H       -12.5159543164       -1.4296712585      -20.2949800880
 H       -12.2937393640       -0.1351044533      -21.5309214309
 H       -17.1423308004        1.0173884039      -20.3668781985
 H       -17.2316248236        2.6109449186      -21.2435285825
 H       -16.2134833737        2.4254395772      -19.9419738616
 H       -13.9453958942       -1.5159131551      -23.1536883429
 H       -13.5441469614        0.2840234007      -23.3449954670
 H       -14.9743418090       -0.4997669743      -24.1409796388
 H       -16.9397478468       -0.8052997345      -20.7761325180
 H       -16.0495482824       -2.1311510060      -21.4385907266
 H       -17.0124320987       -1.0377254088      -22.6175638521
 H       -12.2409905523        2.0447735713      -17.1643042864
 H       -10.9655311622        2.4009699398      -16.0707513500
 H       -11.2976113135        0.8148424450      -16.4022927749
 H       -10.3231701289        3.2078900977      -19.8614432132
 H       -10.4066797813        4.1890258612      -18.4602480528
 H       -11.9141823976        3.1600900082      -18.9861713798
 H        -6.5527919077       -1.9309664443      -14.2839593206
 H        -4.8301673624       -1.9242841713      -14.6508642213
 H        -6.0029058378       -1.8550648442      -15.9715447902
 H        -5.0773848484       -0.7654662080      -12.8664843774
 H        -6.6531351424        0.1000130010      -12.9442420118
 H        -5.1375818104        1.0398037806      -12.8717949136
 H        -3.4514978259        3.7599356565      -20.5094313686
 H        -4.6996199087        3.8961365555      -19.4331470979
 H        -4.1636494505        2.3161930897      -19.9772563439
 H        -1.3045448596        2.9598268162      -20.0034377198
 H        -1.8488898591        1.5314096318      -18.9851807880
 H        -0.8714107255        2.6871055819      -18.1495316304
 H        -7.4921804654        7.5460493882      -15.2181485239
 H        -7.2931065082        6.7994604232      -16.8362883735
 H        -6.9404200227        8.3506538112      -16.7489379038
 H        -3.7791856630        8.5136968864      -15.3135286217
 H        -5.1438745908        9.3029550300      -14.7943627835
 H        -4.8234114743        9.2888892850      -16.5152483282
 H        -2.2865836740        7.8323404002       -8.3674597161
 H        -3.9583320887        7.6229915381       -8.2297336394
 H        -3.3223815444        8.8793535788       -9.3808570978
 H        -1.8313122968        6.2325753051      -11.7140856858
 H        -0.9326297381        7.2836215789      -10.5966768042
 H        -2.1639854690        8.0661240361      -11.6311925114
 H        -1.8834735162        0.8077601793       -5.4815808088
 H        -2.2898869160        2.5370589823       -5.1835389297
 H        -1.0576386267        1.7809390636       -4.1011328320
 H         1.0316245508        3.6728768930       -5.0154253055
 H         1.9887778373        2.6436338607       -6.0331758589
 H         1.2275427381        1.8777788433       -4.5557762989
 H        -1.0655278797       -4.5758046206      -10.3631924621
 H         0.2927012240       -4.1983952533       -9.5407133563
 H         0.0156980654       -3.1312598687      -10.6720002039
 H        -3.0158188575       -2.5795390018       -9.9841612047
 H        -2.0270351311       -1.1882304824      -10.1697473002
 H        -2.9813796588       -1.5380178276       -8.6732895386
 H        -3.2352500485       -9.8461941554       -3.9799086611
 H        -3.0438385735       -9.6244367023       -5.8052296801
 H        -4.0520598102       -8.5185983029       -5.0373663741
 H        -1.6885296980       -6.3907964822       -3.3541133371
 H        -3.0097250227       -7.5464194475       -2.9126887034
 H        -3.3179962649       -6.3433819007       -4.1554905413
 H         3.2500111881      -11.9714643410       -3.9099718446
 H         2.8666195779      -13.6966918637       -3.8300220154
 H         3.6886947989      -12.8839308688       -2.5186665425
 H         1.9358693237      -14.6722955958       -1.8415779776
 H         0.3833011348      -14.5220060363       -2.6964133133
 H         0.5291059321      -13.9766656719       -1.1043816672
 H         1.0580648056       -9.3681195955        4.4351989739
 H         1.8383934142      -10.2766577184        3.0683048515
 H         0.1163677366      -10.4286679204        3.5663481747
 H        -1.4238684206       -8.7058668903        3.1852240661
 H        -1.2002673260       -7.4130515956        1.9585458507
 H        -0.7504768377       -7.2412444612        3.6282741987
 H         6.7793299861       -5.3676120817       -1.0296225435
 H         6.2788584411       -6.6609662315        0.0321143080
 H         5.8551865928       -5.1560121219        0.5828373830
 H         3.9829609692       -4.0517178010       -0.9339013425
 H         3.1287688129       -4.9751173852       -2.2009051717
 H         4.8448574618       -4.4119412817       -2.4866784437
 Na        1.7879757223       -8.3581293568       -2.0294605429
 Na       -6.2050901943        3.7617928825      -16.4112563323
