232

 C       -19.3938872439      -11.9812177079        0.9857969235
 C       -18.2313688853      -12.0599867887       -0.0752378605
 O       -18.0752059305      -11.1694684870       -0.9220696273
 C       -17.4284297293      -13.3915054621       -0.0665456452
 C       -15.9092317966      -13.0771128191       -0.6467983838
 O       -15.7061740972      -13.0105121001       -1.8447112680
 C       -14.8546662209      -12.6401156906        0.2818647252
 C       -13.5240904392      -12.2701750146       -0.5439167396
 C       -13.6141843028      -10.7648432631       -1.0507084665
 O       -14.5924607397      -10.0649163954       -0.7053230405
 C       -12.6376156923      -10.3162360911       -2.2228759595
 C       -13.4649288718      -10.5975037882       -3.5248815254
 O       -14.0465430980      -11.6348157428       -3.5777999232
 C       -13.3868510304       -9.6052579356       -4.7034021628
 C       -14.2263553514      -10.2059251327       -5.9284890084
 C       -15.6869873726       -9.7596958838       -5.8533212356
 O       -16.3082049558      -10.0652016265       -4.8168405097
 C       -16.1216815077       -8.7902134333       -6.9061014089
 C       -15.2261429476       -7.4556138344       -6.9900331464
 O       -14.5836705177       -6.9625441137       -6.0977576477
 C       -15.3319635924       -6.7125287198       -8.3381202913
 C       -13.9811995331       -6.3441703659       -8.8423762477
 C       -14.2347916508       -5.5435747647      -10.1567954865
 O       -15.3466807425       -5.3830232078      -10.6115256599
 C       -13.0145842552       -4.9336928554      -10.9620582908
 C       -12.2944897669       -3.9508123586       -9.9374381875
 O       -11.8305853579       -4.3997474159       -8.8864274783
 C       -11.9481656234       -2.5382267193      -10.3722336825
 C       -11.2906757004       -1.5831967655       -9.3649351129
 C       -10.3521435264       -0.4563855139       -9.8624322197
 O       -10.0609569017       -0.1392474445      -11.0059891355
 C        -9.5904627893        0.2308816274       -8.6707387156
 C        -8.0477114564        0.2649344709       -8.9603015759
 O        -7.2763099593       -0.5226576451       -8.3907366484
 C        -7.3963147210        1.1839189200      -10.0354431597
 C        -6.2240303739        0.5537273309      -10.7297663677
 C        -5.0275116676        1.6039105176      -10.8828615664
 O        -5.0925253288        2.7209501843      -10.4390499431
 C        -3.7688904569        1.1525844261      -11.7323456794
 C        -2.6332708742        0.4387026612      -10.8195782124
 O        -2.4051730257       -0.7438239002      -10.8601243086
 C        -1.8000325872        1.3993344860       -9.8845515834
 C        -0.3450791785        0.9130292048       -9.8854013063
 C         0.2726753380        1.3423584591       -8.5548812917
 O        -0.1322887561        2.2624114212       -7.8778263402
 C         1.5801247033        0.5072165934       -8.1348352623
 C         2.6572496308        1.5721292404       -8.4547487006
 O         3.4082013943        1.4857900272       -9.4693558643
 C         2.7902834082        2.7747148569       -7.5418590611
 C         3.9706760477        3.6788377585       -7.9183317369
 C         3.4833980740        4.5737185023       -9.1067370328
 O         2.4199994503        5.0121539582       -9.2066329441
 C         4.7067053771        5.1465631763      -10.1005232409
 C         4.3512506881        4.6385101081      -11.6013794699
 O         4.8519064137        3.7098521497      -12.2262917906
 C         3.3000995632        5.5773786974      -12.2257187070
 C         3.8518340282        6.6559511755      -13.1769328511
 C         4.1505463155        6.1962278382      -14.6235010987
 O         4.7878558556        5.1704160425      -14.8282798127
 C         3.9229571752        7.0925801867      -15.8313480989
 C         5.3136644287        7.2269915118      -16.6373877956
 O         5.4080852117        7.0311237552      -17.7850250316
 C         6.4907289147        7.6728554438      -15.7665881701
 C         7.8299487527        7.1640160748      -16.1881888307
 C         7.8405727058        5.6200271492      -16.1108731889
 O         7.5626415645        5.0772073088      -15.1091897046
 C         8.1231454870        4.6431763898      -17.3782502202
 C         9.3273169353        3.7748207058      -17.2686531417
 O         9.9319305671        3.4633188235      -16.2796412818
 C         9.8081832576        3.1023244910      -18.6970015468
 C        10.7199595787        1.9032856313      -18.4523086920
 C        10.1088397621        0.8026063043      -17.6688431019
 O         8.8645173704        0.6919903635      -17.6052250319
 C        11.1086073798       -0.3179516136      -17.0741803719
 C        10.8238697600       -0.5320629362      -15.5007695003
 O        11.6956425567       -0.7121992714      -14.6839928643
 C         9.3969078763       -0.6296285091      -15.0240000963
 C         9.0036778930       -0.1923644268      -13.5661126843
 C         7.7158656197        0.6974325663      -13.6995954596
 O         7.8993965532        1.8855264237      -13.6687081088
 C         6.1441827873       -0.0151630480      -13.7520180158
 C         5.4318768149        0.5984559378      -14.9165488699
 O         4.9744908342        1.7414840019      -14.9207018345
 C         5.1856908446       -0.1276572546      -16.1777393526
 C         6.2074740360       -1.5537790614      -13.8649285094
 C         5.4329094609        0.3840951277      -12.4086532735
 C        10.7246911034       -1.7139616487      -17.6937907579
 C        12.6045293209        0.0322454277      -17.2592075008
 C         6.9039010480        3.6978891929      -17.4130906577
 C         8.0715707974        5.4322044802      -18.6164504076
 C         2.9086380309        6.4432399960      -16.9023760391
 C         3.1917426841        8.4823465372      -15.5397486519
 C         4.7106583995        6.6932255714       -9.9232338116
 C         6.1018005994        4.5554271194       -9.7160373424
 C         1.3945199928        0.2304107301       -6.5749990929
 C         1.8695258313       -0.7345252190       -9.0046805533
 C        -4.2760999961        0.1028867511      -12.7512122052
 C        -3.0748437065        2.4218613433      -12.3689070639
 C       -10.1343448162        1.7779694286       -8.5986279706
 C        -9.7180608074       -0.5045145409       -7.3015901365
 C       -12.0629618644       -6.1315613492      -11.3483808185
 C       -13.6203117985       -4.3441696408      -12.2858016749
 C       -16.1262657292       -9.6895289144       -8.2670062480
 C       -17.5632102728       -8.3634249793       -6.7191441837
 C       -12.3193761643       -8.7545941849       -2.0019508559
 C       -11.2930305353      -11.1483474397       -2.1751190688
 C       -17.3159421169      -14.0544417317        1.3842917486
 C       -18.1985539850      -14.3355103224       -1.0151473819
 H       -19.0611803941      -12.3305408674        2.0090247765
 H       -20.1474570614      -12.6368076949        0.6049528075
 H       -19.8097000596      -10.9777238404        1.0165520667
 H       -14.6974753253      -13.5169337731        0.9388391391
 H       -15.2830513742      -11.7796281918        0.7797724428
 H       -13.4199882120      -12.9469363578       -1.3689698431
 H       -12.6633644686      -12.4411963395        0.0672153244
 H       -12.3723035467       -9.3931062382       -5.0229287849
 H       -13.7716582691       -8.6546344594       -4.3805341328
 H       -14.1246951711      -11.3330163146       -5.8656334743
 H       -13.5352049725       -9.8842429352       -6.8292872424
 H       -15.8399425710       -5.7634102972       -8.2059960116
 H       -15.8273950387       -7.2416271799       -9.1819888015
 H       -13.3758156517       -7.2369010388       -9.0083641132
 H       -13.4365675092       -5.6818348613       -8.1889066396
 H       -12.8152312021       -1.8705314603      -10.6211245407
 H       -11.2482651220       -2.6323305411      -11.1912443731
 H       -10.7546138103       -2.2555403833       -8.7294416067
 H       -11.9988781493       -1.1064274282       -8.6801508672
 H        -7.0132994662        2.1329054887       -9.6389704848
 H        -8.1929087783        1.4820771422      -10.7078798515
 H        -6.5735206982        0.0154007701      -11.6725689740
 H        -5.7824336205       -0.3135003958      -10.1317014001
 H        -2.3422081972        1.3144761267       -8.8935860197
 H        -1.9617138489        2.3450522738      -10.3073577250
 H         0.1846364957        1.3846904418      -10.7151459921
 H        -0.2367908069       -0.1466704880       -9.9441309381
 H         3.0361909585        2.1829846113       -6.6242797469
 H         1.8701076662        3.2240798120       -7.3257454983
 H         4.8063220552        3.0173484983       -8.2358012480
 H         4.3236510983        4.3891070798       -7.1666202231
 H         2.6905717261        6.1298436902      -11.4980183048
 H         2.4766302088        5.0396267402      -12.7343799049
 H         4.7245202918        7.1473206686      -12.7873380104
 H         3.0880431091        7.4017165245      -13.2297295246
 H         6.3743683639        7.4091801980      -14.6718885413
 H         6.4148798433        8.7540578199      -15.7843691530
 H         8.7910515477        7.6016914058      -15.5867257426
 H         7.9780294220        7.4014561578      -17.2113579079
 H        10.3955873060        3.8119486493      -19.2908557226
 H         8.8324182779        2.8819693327      -19.2317858453
 H        11.6496012144        2.2654356542      -17.9786551324
 H        11.0530957912        1.4018035375      -19.4404929884
 H         9.0998696723       -1.6940799834      -14.9868333234
 H         8.7709528929       -0.0616066979      -15.6795196834
 H         9.7969679277        0.4350865252      -13.1269083623
 H         8.8668056079       -1.0974425719      -12.9447142491
 H         5.9470472419       -0.8601184468      -16.3165348846
 H         5.3021184580        0.6431452210      -17.0542664689
 H         4.2975899637       -0.7229172303      -16.3109281258
 H         5.2193778988       -1.8779105347      -14.1981000634
 H         6.3101759768       -1.9644267582      -12.8146475074
 H         6.9411465986       -2.0222034125      -14.5511174619
 H         5.9355677740       -0.0706835056      -11.5904813678
 H         4.4382812581        0.1469819226      -12.3078708191
 H         5.4257004775        1.4197931222      -12.1369807369
 H        11.0549732103       -1.7347182675      -18.7404451626
 H         9.6286288323       -1.8871328433      -17.5896357854
 H        11.1975425721       -2.4749179277      -17.0334863805
 H        12.8033896947        0.0265457155      -18.3105738206
 H        13.0905970833       -0.9059066436      -17.0164051567
 H        13.0661512146        0.7928640765      -16.6360665187
 H         6.7429524476        3.1990200501      -16.4072173170
 H         6.9741683549        2.9746020011      -18.2657804527
 H         5.9411750612        4.3116779805      -17.5429999977
 H         8.5401766276        6.4841653161      -18.5913487708
 H         7.1365372943        5.4882190508      -19.0036143182
 H         8.6639013284        5.0219336429      -19.4657454221
 H         2.0395003058        6.1218489048      -16.4447978377
 H         3.2947612189        5.4449975649      -17.2252355770
 H         2.7791168356        7.0778366151      -17.7282739302
 H         3.2872846540        9.1823452259      -16.2817487323
 H         3.5264893731        8.9636630967      -14.6786598675
 H         2.1435991584        8.2727016916      -15.3525374614
 H         5.0514186999        7.0185884064       -8.9015839082
 H         3.8308306357        7.2335321163      -10.1051164001
 H         5.5007191932        7.2139674116      -10.5380293805
 H         6.8146033013        5.1304847947      -10.3900183599
 H         5.9773598859        3.4586362798       -9.8688599594
 H         6.2846724981        4.6717534117       -8.5788927841
 H         1.3890455911        1.1309099396       -5.9065863507
 H         2.3243391864       -0.2140128292       -6.3041585275
 H         0.5347668032       -0.4040110475       -6.4459557416
 H         1.1088968736       -1.5026484725       -9.0739989996
 H         2.7665631324       -1.0935914226       -8.5825824112
 H         2.1478808156       -0.5418577453      -10.0422885661
 H        -4.3521035108       -0.9684138333      -12.3595591379
 H        -3.4940124032        0.1542112217      -13.5628198192
 H        -5.2589994803        0.1779873503      -13.2485475168
 H        -2.1150344254        2.1815042241      -12.8586955145
 H        -3.1084141783        3.2807757586      -11.7271508731
 H        -3.6710644065        2.8175224656      -13.1631417982
 H       -11.2147218507        1.8894058107       -8.5219440401
 H        -9.8610239849        2.1700357967       -9.6631711897
 H        -9.5860975191        2.2706190675       -7.7764945761
 H       -10.7227256582       -0.4332535349       -6.8422955104
 H        -9.2196910996        0.0695051739       -6.5264608261
 H        -9.3862277510       -1.5216730921       -7.2083843753
 H       -11.2285504708       -5.6821948391      -11.8204945325
 H       -12.5616369655       -6.8311067098      -12.0664925118
 H       -11.8348689810       -6.5813879563      -10.3984254298
 H       -14.1050191650       -5.0788429052      -12.9429961408
 H       -12.7715314384       -3.9451501657      -12.8776510478
 H       -14.3265552385       -3.5382247373      -12.0143358533
 H       -15.1071807463       -9.9760067259       -8.4911061769
 H       -16.5853318857       -9.0281679094       -9.0262259820
 H       -16.6553241408      -10.6670805580       -8.0110331359
 H       -17.6222816610       -7.5921700549       -5.9044737207
 H       -18.2357906514       -9.2427807885       -6.6099112371
 H       -17.7915575414       -7.9118847300       -7.6094180689
 H       -13.2659537217       -8.1684917912       -2.0783249616
 H       -11.6150753905       -8.3683160352       -2.7376091715
 H       -11.8226325869       -8.6838164539       -1.0574069636
 H       -11.5097960455      -12.1678779942       -2.3645998036
 H       -10.6395493597      -11.1241940391       -1.3899104711
 H       -10.5623268789      -10.8195690375       -2.9588019253
 H       -16.7599207551      -13.3888090737        2.1503297010
 H       -16.7019009822      -14.9751395031        1.2481589963
 H       -18.1920578470      -14.5217856972        1.6367103516
 H       -17.6787860443      -14.5488929021       -1.9700472531
 H       -19.1189478803      -13.8424960653       -1.2849235976
 H       -18.4603228786      -15.3153886258       -0.5776672173
 Na      -16.7308537224      -11.5069245825       -2.9395867465
 Na        6.3503224428        3.3124917664      -14.0824845897
