232

 C         6.3258405307       -6.9132356653       -3.0816386536
 C         5.0204627552       -6.9267002666       -2.2920119107
 O         3.9969242789       -7.4973644690       -2.6642882043
 C         4.8027687079       -5.9392297442       -1.0566035153
 C         3.7195052161       -6.5746155775       -0.0174952214
 O         3.2374398437       -7.6736229594       -0.0600851280
 C         3.1563779564       -5.5110153679        0.9466900059
 C         1.8465858360       -5.9408060621        1.6329706331
 C         2.0682071219       -7.2970715755        2.2726678246
 O         3.2031509945       -7.6818014808        2.6363283334
 C         0.8473606322       -8.3747443408        2.3561449238
 C         0.9204469021       -9.0900712501        0.9995121955
 O         0.3927415049       -8.5644332739        0.0327207222
 C         1.5348397176      -10.4572080024        0.7918433203
 C         0.7513696110      -11.2114811805       -0.3271982252
 C         1.5309895122      -11.3008311376       -1.6734337790
 O         2.5136438195      -10.6728758535       -1.9178757597
 C         1.0805241758      -12.5426106846       -2.7396776929
 C         0.0559306675      -11.9042938495       -3.6485764487
 O        -1.1756374412      -11.9933475932       -3.4614614922
 C         0.5165180799      -10.9722975167       -4.8203254121
 C        -0.6096180274      -10.0309826411       -5.2599836418
 C        -0.6500811931       -8.6963389833       -4.4108496679
 O         0.1321609850       -8.4882082228       -3.4875080636
 C        -1.8961762154       -7.8644638262       -4.6795492915
 C        -1.8494305502       -7.2076952015       -6.2156451938
 O        -1.7983020137       -7.9760073383       -7.1312140847
 C        -1.9726534871       -5.6863181319       -6.5501854313
 C        -1.4668630495       -5.2454828232       -7.8775986549
 C        -1.7586438770       -3.7666944969       -8.0856183580
 O        -2.5316422935       -3.2591892414       -7.2631337983
 C        -0.9313912931       -2.7561058423       -9.0734990706
 C         0.2105787831       -1.9254534058       -8.3329083002
 O         1.2435562376       -1.6158429196       -8.9315331999
 C         0.0248014521       -1.6610070204       -6.7996633528
 C         0.4020200446       -0.3216950194       -6.1706596832
 C        -0.2770170940        0.9071196804       -6.9007386566
 O        -0.6535606463        0.9054351686       -8.0479659321
 C        -0.2493261773        2.2832720894       -6.0450714129
 C        -0.5456129577        3.3473499557       -7.1586396432
 O         0.3984202482        3.9696152350       -7.5452541470
 C        -1.9843195897        3.6716943591       -7.7318669514
 C        -2.0273352982        5.1571273500       -8.0360595899
 C        -2.8899281507        5.3579476784       -9.3464505223
 O        -3.1573149393        4.4342383481      -10.0249057324
 C        -3.2759660199        6.7776304349       -9.7452558893
 C        -4.6441329974        6.7559043869      -10.5441965122
 O        -5.6377376458        7.3125932622      -10.1060667009
 C        -4.5753493834        5.9733311704      -11.8905294496
 C        -4.9166066224        6.8908999531      -13.1225506198
 C        -5.5483723149        6.1571741139      -14.3346062086
 O        -5.9681567984        5.0111168548      -14.3164975070
 C        -5.6725720323        7.0735153198      -15.5887748757
 C        -4.7965011344        6.4896789380      -16.7443363973
 O        -5.3538860073        5.5193994953      -17.2757335544
 C        -3.3753370101        6.8776319339      -16.8588302641
 C        -2.5975759933        6.0313364626      -17.9575480541
 C        -2.1559099439        4.5805876681      -17.7014848532
 O        -1.2729019407        4.3430992536      -16.8635402779
 C        -2.8309103815        3.3239444267      -18.6143023231
 C        -3.5990060908        2.5353681804      -17.4794640561
 O        -4.7771050982        2.5173784807      -17.5167852408
 C        -2.9130413973        1.7530401363      -16.3845555572
 C        -3.9446140953        1.4227748997      -15.2331409825
 C        -4.6681684245        0.1558637907      -15.5009133590
 O        -4.3972148489       -0.5842221707      -16.3805899561
 C        -5.9925329792       -0.2175549851      -14.4329691819
 C        -7.0699140889        0.6569107193      -15.1749930012
 O        -7.0629785087        1.8578485495      -15.0194247727
 C        -8.0843146134       -0.0496281416      -16.0233979244
 C        -8.0867617323        0.3975083765      -17.5077783908
 C        -8.7568361910        1.7871273273      -17.7497951049
 O        -8.0034153848        2.7491768736      -17.7034669262
 C       -10.3089135372        1.9582020835      -17.8730260137
 C       -10.8561482861        1.0752313940      -19.1032052796
 O       -10.1043432195        0.4093761991      -19.7982306729
 C       -12.3525077272        1.0626995645      -19.2698667262
 C       -12.7393673434       -0.0138095654      -20.3299938965
 C       -14.2592735891       -0.1508697163      -20.4914674922
 O       -15.0063724607       -0.2929330428      -19.5401433498
 C       -14.9926522685       -0.0200872484      -21.8795323673
 C       -15.5348892544        1.4486499984      -22.1194815041
 O       -15.1028038148        2.0682432416      -23.1001220112
 C       -16.4648333206        2.0373585439      -21.1002690779
 C       -13.9979695843       -0.4288027492      -23.0055313587
 C       -16.2588147086       -0.9458714489      -21.8194346550
 C       -10.9827607270        1.3834193898      -16.6254752171
 C       -10.6387451968        3.4542052963      -18.1058446727
 C        -6.1788163286       -1.8655789751      -14.4926080574
 C        -5.7330454052        0.1559656841      -12.9491701378
 C        -3.7844206827        3.5715860308      -19.7449922130
 C        -1.5026595901        2.5705027396      -19.1122619691
 C        -7.0819875280        6.9979306203      -16.1554401766
 C        -5.2493746711        8.5915432068      -15.3761343064
 C        -3.4358337933        7.7155046546       -8.5043525679
 C        -2.0285048149        7.2172349889      -10.5997569332
 C        -1.2304682112        2.3788064758       -4.7973728342
 C         1.2272199425        2.5057303847       -5.5649470496
 C        -0.3489324197       -3.4503158822      -10.3298344567
 C        -1.9098090256       -1.6965301566       -9.5245048338
 C        -3.1906435325       -8.7728195454       -4.7974515391
 C        -2.1379044306       -6.8845297185       -3.5340793213
 C         2.3229628073      -12.9237511300       -3.5206227218
 C         0.5941800994      -13.8277002981       -2.1001413267
 C         1.1143681587       -9.3386075297        3.5779133814
 C        -0.5021528534       -7.6727901988        2.7581122406
 C         6.0803038208       -5.7439214481       -0.2352158450
 C         4.2151005397       -4.6273970339       -1.7291178140
 H         7.3070087018       -7.0282905001       -2.6306412769
 H         6.4703299690       -5.9249540746       -3.6260136272
 H         6.3525678337       -7.6454343157       -3.8963493252
 H         3.0083398119       -4.5763713484        0.4839553674
 H         3.8254909262       -5.3741454181        1.7498276562
 H         1.0712604641       -6.0381085495        0.9156063350
 H         1.3199831186       -5.2716218996        2.3441807017
 H         1.4910305793      -11.0790432005        1.7521932908
 H         2.5825186159      -10.3031331052        0.4995508227
 H        -0.1630819969      -10.6779910617       -0.7077150698
 H         0.3406659688      -12.1328408845        0.0138514617
 H         0.7368520957      -11.6456342030       -5.6530325386
 H         1.3715363943      -10.4039965800       -4.5733284413
 H        -1.5252433345      -10.6116641779       -5.1411486592
 H        -0.5184020152       -9.7723675450       -6.3024225543
 H        -1.5828886963       -5.2188928005       -5.6880852890
 H        -3.0811542578       -5.5061096029       -6.4131873379
 H        -1.9041757203       -5.8357236843       -8.6796759859
 H        -0.3376268132       -5.1717432469       -8.0419145554
 H         0.6337922454       -2.5380105011       -6.2568584104
 H        -0.9889054088       -1.9136302582       -6.4514191172
 H         1.4638691349       -0.1326004164       -5.8308871428
 H        -0.0800335102       -0.2413523079       -5.1892533990
 H        -2.8176786343        3.3171885325       -7.0540007722
 H        -2.1618603458        3.1518719854       -8.5703256982
 H        -1.0714036366        5.5962982904       -8.3127001545
 H        -2.4845181333        5.7307458128       -7.2153289801
 H        -5.3686344017        5.2612128519      -11.9032631746
 H        -3.6513979738        5.3818972871      -11.8031926364
 H        -4.0407034996        7.4325364876      -13.4379721206
 H        -5.6692476577        7.6054034633      -12.7382496394
 H        -2.8541440506        6.7438519712      -15.9332555460
 H        -3.2211515981        7.9897227786      -17.0174149405
 H        -1.6127094485        6.4889028786      -18.0108333059
 H        -3.0252751837        6.1239227660      -18.9109006047
 H        -2.0848521215        2.3445560591      -15.9519513907
 H        -2.4429689204        0.8430406217      -16.9526526075
 H        -4.7086918161        2.1131476408      -14.8587369663
 H        -3.3252944212        1.2085058989      -14.3371053360
 H        -9.0070822189        0.0374349945      -15.5444080925
 H        -7.9689642134       -1.1390848031      -15.9843353444
 H        -8.5707152560       -0.2764340633      -18.2234515940
 H        -7.0606289520        0.5574463053      -17.9331980100
 H       -12.5270052551        2.1139364040      -19.6027647360
 H       -12.7810895328        0.9492698951      -18.2986053883
 H       -12.3082200497       -0.9828468517      -19.9663091678
 H       -12.2194837345        0.2094335710      -21.1913923946
 H       -17.1069731622        1.2233824935      -20.6367936631
 H       -17.0775932343        2.8289645644      -21.4550837592
 H       -15.8835562388        2.3603596381      -20.2343601583
 H       -13.4069566393       -1.1972833514      -22.5723031860
 H       -13.2650649279        0.2645396089      -23.2580768157
 H       -14.4922460189       -0.8149643090      -23.9111267161
 H       -16.8549214198       -0.7798671439      -20.9052860274
 H       -15.9468136105       -2.0167350765      -22.0175492321
 H       -16.9558742800       -0.6209873254      -22.5878692161
 H       -11.8369407230        2.0245257586      -16.3693970769
 H       -10.4444079129        1.4215118959      -15.7251989972
 H       -11.3277956566        0.3497545657      -16.7126950382
 H       -10.0516566989        3.8208724931      -19.0263635216
 H       -10.3332542647        4.1956432365      -17.2731978923
 H       -11.7150343207        3.5590618921      -18.1328199446
 H        -6.9758840211       -2.1208865705      -13.7918562429
 H        -5.2479581162       -2.4189477456      -14.2199722149
 H        -6.4301697950       -2.3695476805      -15.4412040669
 H        -4.7125426805       -0.0036989105      -12.6086026603
 H        -6.4513144489       -0.4216158397      -12.4389776356
 H        -6.0417063121        1.1940165590      -12.8901281463
 H        -3.3401650642        3.2760196041      -20.6515459018
 H        -4.0327274294        4.6264770309      -19.8511240528
 H        -4.7155495999        3.1085693596      -19.5760571714
 H        -1.0849553514        3.2459746824      -19.8595509590
 H        -1.8655327055        1.6928159474      -19.5786695188
 H        -0.7554708592        2.2622897401      -18.3721807324
 H        -7.6660147678        7.8206752724      -15.6670649304
 H        -7.6561638652        6.0836284989      -15.9699342628
 H        -7.1180875593        7.2872784445      -17.2614673811
 H        -4.2870104172        8.8732593664      -14.9991980908
 H        -6.0405063829        8.9717346462      -14.7427464012
 H        -5.3293326956        9.1680073630      -16.3497839805
 H        -2.6523914925        7.6038439654       -7.7565703498
 H        -4.4581063357        7.5950119878       -8.0743663287
 H        -3.6029060919        8.7140534021       -8.8617899888
 H        -2.4999366583        7.9166042228      -11.2970270660
 H        -1.4838757973        6.3904451319      -11.0602056988
 H        -1.3535898396        7.8979503723      -10.1481088469
 H        -2.1426768719        2.6903188227       -5.2229266875
 H        -0.7867238925        2.9768305336       -4.0489337365
 H        -1.4357096873        1.3313095161       -4.4291083976
 H         1.4000706667        3.3824855760       -4.9649181871
 H         1.9031991348        2.4592279942       -6.4513123136
 H         1.4492952869        1.6902486630       -4.9062035538
 H        -1.1053085469       -3.4979908547      -11.1976565457
 H         0.0757335110       -4.4630380678      -10.2039141273
 H         0.4200619834       -2.8197282252      -10.8962957481
 H        -2.5768455016       -2.2722688342      -10.1632006309
 H        -1.4776874123       -0.8620555118      -10.1841031088
 H        -2.4480077275       -1.1168206116       -8.7510524882
 H        -3.2845767839       -9.2497537008       -3.8060602884
 H        -3.0473341568       -9.3849334452       -5.7307364076
 H        -4.0840699096       -8.1587977029       -4.9805329277
 H        -1.4296124715       -6.0493862390       -3.3251580352
 H        -1.9841063266       -7.5686258617       -2.7117224000
 H        -3.1084615871       -6.4238769163       -3.4764846885
 H         3.0857812583      -12.0938855554       -3.4833644788
 H         2.1465027163      -13.2674040144       -4.5578571873
 H         2.8006343509      -13.7495462803       -3.1085159806
 H         0.6606013224      -13.8241915019       -1.0051553195
 H         1.1439345705      -14.7078226079       -2.4626604309
 H        -0.4116738421      -14.0942997861       -2.4394401466
 H         1.1813866816       -8.7610679344        4.5011262735
 H         2.1182651184       -9.8177320100        3.4605445079
 H         0.2620436723      -10.0456709362        3.5542351686
 H        -1.3502190877       -8.0196117796        2.2124133484
 H        -0.6316420275       -6.6273326759        2.6965298583
 H        -0.7139208667       -7.8766060037        3.7702039423
 H         6.9232487099       -5.5169974257       -0.9190255046
 H         6.2214699210       -6.6182918074        0.3783777060
 H         5.9842707585       -4.8632728814        0.4214296684
 H         4.3217100082       -3.8532667347       -1.0096335429
 H         3.1392584924       -4.8725419381       -1.9143263321
 H         4.8907166346       -4.3834405044       -2.5247117739
 Na        1.8312552779       -8.4227076605       -2.0416725533
 Na       -6.5645270413        3.6971202645      -16.4342662808
