232

 C         6.1987114745       -6.9156103188       -3.0864983344
 C         4.9649721294       -6.8954513602       -2.3031880846
 O         4.0160625423       -7.5329925017       -2.7595485072
 C         4.8419516926       -5.9725234429       -0.9716869940
 C         3.7287103492       -6.4377741592       -0.0970729290
 O         3.2992547949       -7.6147323398       -0.1707978471
 C         3.1250115980       -5.4347244401        0.9560940416
 C         1.8273590824       -5.9357166744        1.6599091168
 C         2.1045422039       -7.2861806436        2.2543036306
 O         3.2624692654       -7.5744813365        2.5013498866
 C         0.8964194693       -8.3435366603        2.4795271371
 C         0.9345195163       -9.0828594050        0.9842003541
 O         0.3331486122       -8.5215409376        0.0626156784
 C         1.6643830371      -10.4089666280        0.7889027944
 C         0.9296895235      -11.2338398950       -0.3054834899
 C         1.6114220132      -11.4555513881       -1.7139180698
 O         2.4503081426      -10.6346835234       -2.0133299555
 C         1.1405953469      -12.5518932986       -2.7357304523
 C         0.0341983146      -11.8647670619       -3.7637547335
 O        -1.1181289440      -12.0143817037       -3.5551176544
 C         0.5277628443      -11.0042301434       -4.9420164551
 C        -0.5526766674      -10.0090858422       -5.3401775089
 C        -0.7669946689       -8.8279948584       -4.4695635033
 O         0.0296124156       -8.5221342464       -3.5486904732
 C        -1.9097670558       -7.7803481854       -4.7532746610
 C        -1.7931363570       -7.1859653642       -6.2511464398
 O        -1.6304335802       -7.9353061649       -7.1845635777
 C        -2.0154093663       -5.6219237830       -6.5972008323
 C        -1.4310949295       -5.2122986663       -7.9209668918
 C        -1.7471670969       -3.7072684754       -7.9933916071
 O        -2.6567391624       -3.2509108507       -7.3397713661
 C        -1.0109847087       -2.8077022521       -9.0407735917
 C         0.3216257966       -1.9862345088       -8.2204947590
 O         1.2427310026       -1.6600095377       -8.8826718655
 C         0.1630274869       -1.7553693662       -6.7022533184
 C         0.4414254503       -0.3436324538       -6.1857480828
 C        -0.1953493467        0.9208758287       -6.7625169203
 O        -0.6643609965        0.8584552681       -7.8728648654
 C        -0.1382492253        2.2636098183       -6.0738463697
 C        -0.5013362807        3.4722180138       -7.1269176434
 O         0.4228203357        4.1293790565       -7.5971056473
 C        -1.8470750043        3.6477196087       -7.7516930134
 C        -2.0416437536        5.0902930928       -8.0838560954
 C        -2.9653939930        5.3811689251       -9.2539038076
 O        -3.2563092319        4.4623000929      -10.0077003865
 C        -3.3477692375        6.8260655105       -9.7510054826
 C        -4.6117197359        6.7325139921      -10.6306134995
 O        -5.6212911175        7.2735270021      -10.2707585886
 C        -4.6777505317        5.9029962451      -11.9104036463
 C        -4.8579056332        6.9024966960      -13.0768541066
 C        -5.5914632288        6.2114651784      -14.1793930007
 O        -5.9009817161        5.0407136991      -14.1957204967
 C        -5.8437065393        6.9926159371      -15.6130011619
 C        -4.7603546587        6.2402294651      -16.5477041718
 O        -5.0950364712        5.4045958433      -17.3820609700
 C        -3.3111336224        6.7818622213      -16.6540081755
 C        -2.6424506636        6.0313390205      -17.8798544409
 C        -2.2057465264        4.5513985272      -17.6290636548
 O        -1.2944113502        4.2204565132      -16.8504595527
 C        -2.8124945925        3.3707562630      -18.5769961227
 C        -3.6824856705        2.5122686680      -17.5063969921
 O        -4.8990910992        2.6633717424      -17.5849212760
 C        -2.9562202508        1.7322678455      -16.3744043348
 C        -3.9147215925        1.3760328319      -15.2137110296
 C        -4.7914010230        0.0623296236      -15.5034702952
 O        -4.8264768750       -0.6060530570      -16.5280882532
 C        -5.9147074994       -0.2583581869      -14.3249611411
 C        -7.0529210642        0.4774743003      -15.0557294566
 O        -6.9847523782        1.6638994276      -14.9328501589
 C        -8.0308362870       -0.2289556040      -16.0538979835
 C        -8.0553635727        0.3799567645      -17.4333526531
 C        -8.6802062382        1.8392190026      -17.6355397249
 O        -8.0154022944        2.7992607107      -17.8803419690
 C       -10.2912899345        1.9631248949      -17.7698522698
 C       -10.8823182929        1.1782549944      -19.0045602039
 O       -10.1221748757        0.5522958340      -19.7125316754
 C       -12.4791300854        1.2369911728      -19.3548871481
 C       -12.8594254001        0.1176732141      -20.4383381039
 C       -14.3850672497       -0.1082635855      -20.4503192695
 O       -15.0293977923       -0.3953391322      -19.4660577486
 C       -14.9988831531       -0.1065393177      -21.9246700678
 C       -15.3919316989        1.4549213130      -22.2315977269
 O       -15.1441656733        2.1015993935      -23.2222363917
 C       -16.4333821014        2.0305251166      -21.1493705538
 C       -13.9821688556       -0.4861189540      -22.9977976890
 C       -16.2625007589       -0.9787897969      -21.9959257259
 C       -10.9670217780        1.4200431989      -16.4262127916
 C       -10.6354994312        3.4464782748      -18.0230011949
 C        -6.1797965612       -1.7809915269      -14.3575692928
 C        -5.6437490355        0.2103418976      -12.9893269361
 C        -3.6563776607        3.7140136744      -19.7960459674
 C        -1.6052800164        2.4845898544      -19.0011303826
 C        -7.2595702455        6.9539913822      -16.0671415145
 C        -5.3534454727        8.4613807268      -15.3802777738
 C        -3.6069888378        7.7923471410       -8.4827892911
 C        -2.1568943057        7.2559273569      -10.6086611440
 C        -1.0487829837        2.2542275662       -4.8098124662
 C         1.2934254860        2.4729809562       -5.5248080063
 C        -0.2912683313       -3.5618406978      -10.1773474282
 C        -1.9898792793       -1.7748558585       -9.6841419896
 C        -3.2183578423       -8.5725426155       -4.6535754806
 C        -2.0271047138       -6.5674894219       -3.7091162750
 C         2.3122270394      -13.0297453025       -3.6530609639
 C         0.2626532282      -13.7850357446       -2.0821548466
 C         1.1704561526       -9.2603874231        3.7110802909
 C        -0.4341486606       -7.6980697135        2.5833489451
 C         6.1494255150       -5.6856661014       -0.2185462824
 C         4.3208885291       -4.6028265974       -1.6996123897
 H         7.1706000018       -7.0328295449       -2.5152779145
 H         6.4991582133       -6.1000536023       -3.7581019448
 H         6.1487015071       -7.7614100851       -3.7217887637
 H         3.0004726108       -4.4215518974        0.6498027157
 H         3.8250438225       -5.4426982062        1.7702328144
 H         1.0370340721       -5.9345944530        0.9704038287
 H         1.3829614053       -5.3733557945        2.4170662825
 H         1.7459819234      -11.0333237953        1.6993631354
 H         2.6305503314      -10.1427399338        0.4958238384
 H        -0.1645526777      -11.0197069308       -0.5629857657
 H         0.8411213887      -12.2391618848        0.1585081517
 H         0.7312630000      -11.7099159110       -5.7760840833
 H         1.4517681807      -10.4940505742       -4.6580960589
 H        -1.4959295015      -10.6239395781       -5.2640365292
 H        -0.5177123719       -9.6054549336       -6.3635171238
 H        -1.7027434139       -5.0661482120       -5.7617117797
 H        -3.1426150797       -5.5682342687       -6.5225102184
 H        -1.9929198562       -5.6052497369       -8.7354444746
 H        -0.3147520288       -5.4502757611       -8.1011434362
 H         0.8645269828       -2.4416660598       -6.1811620696
 H        -0.7572325102       -2.1377522085       -6.3091733257
 H         1.4729796990       -0.0878143534       -6.2893854727
 H         0.4098675640       -0.3277042852       -5.1154213893
 H        -2.6783382748        3.2177871599       -7.1450441683
 H        -1.8252870797        3.0034530136       -8.6282482398
 H        -1.1310423611        5.5923907476       -8.5106064246
 H        -2.3612239336        5.6524642679       -7.2030796386
 H        -5.5028319902        5.1408231417      -11.8566841656
 H        -3.7222040565        5.3712205142      -11.9494353409
 H        -3.8793894811        7.1878503768      -13.3559607196
 H        -5.4822143493        7.8636655221      -12.8234403153
 H        -2.6060934432        6.9197513650      -15.7710444982
 H        -3.4052277213        7.7847850065      -17.0181562765
 H        -1.7049489650        6.5269147155      -18.1239444989
 H        -3.2458140433        6.1287607806      -18.7284758303
 H        -2.1576692788        2.4165973596      -15.9979506321
 H        -2.4768696730        0.9175045948      -16.9200239851
 H        -4.6835120769        2.1073103593      -14.9885876170
 H        -3.3709651454        1.2206774506      -14.2789689199
 H        -9.0174601663       -0.4120226760      -15.5885061494
 H        -7.7054780293       -1.3242912693      -16.1720297297
 H        -8.6279944630       -0.1334871840      -18.2217591745
 H        -7.0157155817        0.4725828337      -17.8840092630
 H       -12.6386398797        2.2481034027      -19.6652933350
 H       -12.9986924873        1.0327172324      -18.3957567375
 H       -12.3352910346       -0.8378402226      -20.1231766842
 H       -12.4090901911        0.3583412354      -21.3869868337
 H       -17.1746005251        1.4032869423      -20.8382253408
 H       -16.9274134954        2.9774751194      -21.5524076108
 H       -15.9248904361        2.3103751055      -20.2535502186
 H       -13.3029568304       -1.3630310557      -22.7985988403
 H       -13.2305589512        0.2701860452      -23.1839322507
 H       -14.5949884703       -0.6126733778      -23.9155286003
 H       -16.8428894197       -0.7183134490      -21.0368938425
 H       -15.8894754445       -2.0353726571      -22.0470610238
 H       -16.9834257998       -0.7877706768      -22.7726806847
 H       -11.9611528750        1.8685083991      -16.3490368090
 H       -10.5109886334        1.6125192162      -15.4886669575
 H       -11.1333254170        0.3830640377      -16.5490044015
 H       -10.2979987037        3.8254287476      -19.0214316404
 H       -10.1662913022        4.0931114740      -17.2547551872
 H       -11.7273522334        3.5828693509      -17.7734207266
 H        -7.1067642320       -1.9811885507      -13.8325880669
 H        -5.3493447988       -2.3647989913      -13.9187935649
 H        -6.2315132470       -2.2651835405      -15.3297032400
 H        -4.8157834650       -0.2656694813      -12.5867509580
 H        -6.5625988881       -0.0300185542      -12.4366487569
 H        -5.5486536111        1.3226761307      -13.0839225861
 H        -3.0986327840        3.5518269618      -20.6623477131
 H        -3.9214275433        4.7607332034      -19.8290987533
 H        -4.5445374133        3.2370610807      -19.8009716412
 H        -1.1184640019        2.9249997197      -19.8608311203
 H        -2.0832014104        1.4497653513      -19.2236129276
 H        -0.8556063855        2.3357158024      -18.2018340050
 H        -7.8740271957        7.6450413582      -15.5434809584
 H        -7.7252688578        5.9651655422      -15.9636449271
 H        -7.3283472422        7.3307917589      -17.1303967563
 H        -4.2877096900        8.6448574594      -15.2126257689
 H        -5.9589695421        8.7332651942      -14.5405107080
 H        -5.6211524344        9.1419276869      -16.1636254979
 H        -2.7770421501        7.7707166616       -7.8089943201
 H        -4.5419346242        7.5554300504       -8.0276184335
 H        -3.8802092472        8.8209861686       -8.8069023349
 H        -2.2853451120        8.3012424772      -10.9192485953
 H        -1.8132363263        6.4962738822      -11.3579379935
 H        -1.3056362474        7.4151543851       -9.9405358561
 H        -2.0459300473        2.4702020721       -5.1625613966
 H        -0.5369585313        2.8946926162       -4.0214912205
 H        -1.1010997915        1.1847777244       -4.4878942895
 H         1.5153369118        3.5251554916       -5.1749194905
 H         1.9652089368        2.1535943936       -6.3136958804
 H         1.4684101122        1.8261867963       -4.5546608057
 H        -0.9727600958       -3.7087444269      -10.9282925793
 H         0.2153035015       -4.5003053838       -9.9457698902
 H         0.3504401020       -2.9118663049      -10.7980503436
 H        -2.7307240400       -2.3656857861      -10.2104697627
 H        -1.5224936442       -1.1372422539      -10.3630039525
 H        -2.4362770517       -1.0212287332       -8.9874455294
 H        -3.2794240472       -8.8293334825       -3.6788289054
 H        -3.1929030506       -9.3492468690       -5.4293797829
 H        -4.1132465599       -7.9333500997       -4.8520816437
 H        -1.1640202331       -5.9136273077       -3.5908447888
 H        -2.0312159048       -7.1001441900       -2.7752174984
 H        -2.9083981638       -5.8481645019       -3.7683043238
 H         2.7934664042      -12.1750412308       -4.0658984686
 H         1.9158509340      -13.6459846576       -4.4235153398
 H         3.1269735089      -13.7093508122       -3.2415751824
 H         0.2131675797      -13.6986103531       -1.0436103159
 H         0.7993545044      -14.6523182919       -2.2829742585
 H        -0.7313673431      -14.0616771137       -2.5548245886
 H         1.0680034710       -8.6754139676        4.6388952429
 H         2.1806027289       -9.5093501419        3.6907137530
 H         0.4756727407      -10.0968430570        3.6421852705
 H        -1.1393332547       -8.1923247675        1.9129296402
 H        -0.5408715230       -6.7040343086        2.1861323691
 H        -0.9160621526       -7.5744791439        3.5639951791
 H         6.9205761155       -5.7427212325       -0.9333131801
 H         6.3218715270       -6.3134067415        0.6807385938
 H         6.1617307900       -4.5995060922        0.0397884805
 H         4.6196529881       -3.7557541954       -1.0602688323
 H         3.2730539282       -4.7703324392       -1.6627541067
 H         4.7987119488       -4.4830358561       -2.6275581134
 Na        1.8259819114       -8.4761997463       -2.0343594729
 Na       -6.5035643342        3.7139833159      -16.3774544803
