232

 C         6.1926207599       -7.0835735122       -3.1558720427
 C         4.8614211978       -6.8733996917       -2.4406595931
 O         3.8473084200       -7.5033522089       -2.8133127919
 C         4.7653631622       -5.8077657488       -1.2975074397
 C         3.6071042562       -6.1518700117       -0.2800930984
 O         3.1195601137       -7.2925963068       -0.3532582969
 C         3.2016778782       -5.2490043994        0.9498898007
 C         1.8988465889       -5.9249793786        1.6361071344
 C         2.2036846754       -7.3150982195        2.1820803396
 O         3.2844970628       -7.5230089908        2.7486056398
 C         1.0226250292       -8.4160776918        2.1514050856
 C         1.1244178894       -9.0658641651        0.6962882846
 O         0.5515489508       -8.5666340780       -0.2507620599
 C         2.0463434779      -10.3142987514        0.4737043864
 C         1.3505037633      -11.4736433706       -0.2621263605
 C         1.5622200086      -11.4291086267       -1.8051016398
 O         2.2456427901      -10.6262989870       -2.3542331583
 C         0.8319034385      -12.5225991284       -2.7454082605
 C        -0.1199804314      -11.8085285439       -3.7973638313
 O        -1.3035798227      -11.7840594771       -3.7130271814
 C         0.5683728837      -10.8419562894       -4.6931671301
 C        -0.3750121252       -9.9085902371       -5.3889051979
 C        -0.6939715730       -8.7064982382       -4.4556994885
 O         0.0352865447       -8.4994806958       -3.4709618638
 C        -1.7080388978       -7.5315835978       -4.8372929380
 C        -1.5982932121       -7.0898350047       -6.3164868126
 O        -1.2315346804       -7.7488648457       -7.2668137965
 C        -2.2840475551       -5.6637938691       -6.6666885750
 C        -1.5708892993       -5.1341963808       -7.8758650302
 C        -1.8561906903       -3.6528583668       -8.0225323648
 O        -2.8061828652       -3.1699937847       -7.4382229152
 C        -0.7788658538       -2.8022766133       -8.8820538965
 C         0.2208808963       -1.9984071305       -8.1222152875
 O         1.2499475735       -1.7256525385       -8.6721785968
 C        -0.0490409428       -1.5787599062       -6.7087946264
 C         0.8485908087       -0.4266923044       -6.4850862354
 C        -0.0352729271        0.8049026375       -6.8589648177
 O        -1.0069232869        0.6674275246       -7.5668065356
 C         0.2230320688        2.2005347465       -6.2121470878
 C        -0.1588929861        3.5125498206       -7.1959267199
 O         0.6376469409        4.4282650031       -7.2396114266
 C        -1.5876565926        3.7020118981       -7.7300196373
 C        -2.0194347574        5.1128525034       -7.9352686933
 C        -3.0576753387        5.1813215157       -9.0916743163
 O        -3.5550968714        4.2450784692       -9.6503625161
 C        -3.4180260307        6.6949150671       -9.6082868270
 C        -4.6984181345        6.6645121892      -10.6007401137
 O        -5.6658013121        7.3962441204      -10.4404170995
 C        -4.6291628771        5.8512664798      -11.8845276903
 C        -5.0698463335        6.7711493675      -13.0389323959
 C        -5.6096175644        6.0158771860      -14.2751579353
 O        -5.8420925410        4.8243992939      -14.3314706140
 C        -5.8234638108        6.8585652208      -15.6185644202
 C        -4.7954832132        6.0456516930      -16.5613798584
 O        -5.1216998206        5.0995670332      -17.2916814534
 C        -3.2923050710        6.5452331712      -16.5597932261
 C        -2.4314118681        5.9188755580      -17.7238348427
 C        -2.2211836215        4.4368439303      -17.4208916523
 O        -1.5318694063        4.0708749796      -16.4399919375
 C        -2.7578177734        3.3193290371      -18.3648009659
 C        -3.8112270407        2.5225930425      -17.5920128440
 O        -5.0048374909        2.6070320120      -17.7041201310
 C        -3.1442762878        1.4189188052      -16.6844621395
 C        -3.9470757997        1.0971332594      -15.4539515945
 C        -4.9835038700        0.0709023938      -15.6015802685
 O        -5.1129706690       -0.5407462275      -16.6331051574
 C        -5.9385980172       -0.2798269147      -14.4052738186
 C        -7.2157422733        0.4953985794      -15.0384695447
 O        -7.3481583089        1.6352975360      -14.7186972761
 C        -8.0225950793       -0.2496113550      -16.1229873387
 C        -8.1824649265        0.5157096956      -17.4443512032
 C        -8.8131873464        1.9306954846      -17.4475328705
 O        -8.1082614000        2.9094495319      -17.5185846250
 C       -10.4331167489        2.0246123427      -17.5623842600
 C       -11.0698340906        1.3184387251      -18.7920001321
 O       -10.2867293280        0.6843664011      -19.4649248017
 C       -12.6047532657        1.2391126686      -19.1310890267
 C       -12.8840231441        0.6073459396      -20.5572112886
 C       -14.2727793152        0.0155015937      -20.5954579041
 O       -14.8660536716       -0.2616971851      -19.5883020168
 C       -14.8996694477       -0.0500333063      -22.0543670688
 C       -15.4190773252        1.3546686343      -22.4382046683
 O       -15.0108263414        1.9926524994      -23.3995573215
 C       -16.3106669090        2.0593690442      -21.3891753093
 C       -13.9578282772       -0.5177666468      -23.1513832017
 C       -16.1004986824       -0.9770649424      -21.8785025086
 C       -11.1240161196        1.4550202843      -16.2462499582
 C       -10.8015003589        3.5338871564      -17.6183582936
 C        -6.1592727515       -1.7211529236      -14.1760442580
 C        -5.4983369524        0.4263191140      -13.1000481019
 C        -3.5044927583        3.8453936699      -19.7025571324
 C        -1.6543527809        2.4238579073      -18.9183314303
 C        -7.2364494613        6.5465782052      -16.0955353242
 C        -5.5926438723        8.4043036343      -15.4663776234
 C        -3.8568514533        7.5129177087       -8.2365618148
 C        -2.3558861645        7.3028770737      -10.5125966464
 C        -0.9146118415        2.1784788473       -5.0653100766
 C         1.7120775006        2.3588014888       -5.6568945640
 C        -0.0935182031       -3.7233269155       -9.9226227066
 C        -1.5701720198       -1.7231228447       -9.7626866088
 C        -3.2572942958       -7.9901293553       -4.6823519860
 C        -1.4731227581       -6.4122450956       -3.7218123492
 C         2.0292538751      -13.2522836185       -3.4727048758
 C         0.0710218446      -13.6136476556       -1.9727887546
 C         1.1985601588       -9.4542881243        3.2917154773
 C        -0.2510122170       -7.7221024554        2.4526385852
 C         6.0697964917       -5.8830504280       -0.4214610648
 C         4.5920118776       -4.2253414948       -1.9320536106
 H         6.9247063910       -7.7262362537       -2.6733198566
 H         6.8765266926       -6.1954786771       -3.1371460353
 H         6.0785833372       -7.2687901460       -4.1711857055
 H         3.0695551333       -4.1681909611        0.8255021365
 H         3.9866693779       -5.3845264773        1.7116523690
 H         1.0882090478       -6.0735854107        0.8838692555
 H         1.3312999769       -5.2681682381        2.3973726699
 H         2.2998104105      -10.7110566897        1.5578492985
 H         3.0691761905      -10.0838028533        0.1059658718
 H         0.2803131144      -11.5326757831        0.0017107225
 H         1.7145369514      -12.3863898104        0.0560895747
 H         1.2322587374      -11.3780413447       -5.3810733393
 H         1.2174679716      -10.2835420708       -4.0816782174
 H        -1.3282519731      -10.4084275491       -5.5867947852
 H         0.0152024735       -9.5791055529       -6.3256629636
 H        -2.1939853163       -5.0598858732       -5.8082732900
 H        -3.3948421634       -5.8890699615       -6.8671602068
 H        -1.8271546667       -5.6960541045       -8.7473958063
 H        -0.4183770835       -5.1446543572       -7.7778023674
 H         0.0096287727       -2.4623943801       -5.9011514358
 H        -1.0928203060       -1.3327445806       -6.5247104538
 H         1.8908481630       -0.5222265086       -6.9641999217
 H         1.1681282313       -0.2515442220       -5.4321595106
 H        -2.2483069714        3.1217422501       -7.0108260913
 H        -1.6633904338        3.2249693809       -8.5977921159
 H        -1.1611978510        5.7283466436       -8.2052582465
 H        -2.4437417183        5.6585755955       -7.0882706774
 H        -5.3191726174        5.0562840680      -11.7583265530
 H        -3.5953095481        5.5167933988      -11.9325140536
 H        -4.1660309079        7.3365763458      -13.2392232891
 H        -5.8125467288        7.5103654364      -12.7095399756
 H        -2.8472848788        6.4784253070      -15.5755140288
 H        -3.1908068492        7.6320147730      -16.7992009997
 H        -1.4078963746        6.3840210149      -17.8102141079
 H        -2.9285230861        6.1090645614      -18.6280742742
 H        -2.2147729908        1.8609528162      -16.3345434466
 H        -3.0206188497        0.5183707396      -17.4115554954
 H        -4.5009289870        1.9809140496      -15.0709991836
 H        -3.3206560810        0.6352287796      -14.6420510407
 H        -8.9226364081       -0.5072117194      -15.7366799188
 H        -7.5776064338       -1.2171045639      -16.3756691638
 H        -8.7890552708       -0.0342536662      -18.1209469560
 H        -7.2159113093        0.7359053227      -17.9373128630
 H       -13.0081242122        2.2731547151      -19.1625788944
 H       -13.0879839185        0.6252939756      -18.3808194346
 H       -12.1683058915       -0.1692185194      -20.8985634726
 H       -12.7982550037        1.3210264696      -21.2663242892
 H       -17.3501128370        1.8282897383      -21.5066904871
 H       -16.2930813146        3.1968085287      -21.6623857178
 H       -15.9903388078        2.0256567493      -20.3335522427
 H       -13.7174667751       -1.5453574110      -22.9951119140
 H       -13.0451882062       -0.0724788204      -23.1324570059
 H       -14.3901524385       -0.3759688609      -24.1441511584
 H       -16.7982550091       -0.4741656130      -21.1975497356
 H       -15.8597173447       -2.0018095766      -21.5858762008
 H       -16.6161489382       -1.0618629057      -22.7581694435
 H       -12.2654948840        1.2441623083      -16.2479705540
 H       -10.8973929952        2.1763479795      -15.4819806044
 H       -10.6283585702        0.4933415272      -15.9381008613
 H       -10.4613367005        4.0054226758      -18.5651506812
 H       -10.4836510044        3.9893170724      -16.6680162758
 H       -11.8599222268        3.7550109940      -17.6767980351
 H        -7.0329976936       -2.1553619950      -14.5993796961
 H        -5.9496662267       -2.1062456524      -13.1601231081
 H        -5.4072509040       -2.2451769981      -14.7856964732
 H        -4.4881670341        0.1649376776      -12.9730941290
 H        -6.0047674751       -0.0680961947      -12.2839707547
 H        -5.7198927486        1.5315307589      -13.1338771035
 H        -3.1876831572        4.8976095386      -19.9835352175
 H        -4.6735204283        3.9041403404      -19.6780720909
 H        -3.2780296954        3.2237979337      -20.5149937373
 H        -1.0132831201        2.9485934260      -19.5532338361
 H        -2.1038905057        1.5696287387      -19.4156626732
 H        -1.0264028672        2.1504766933      -18.1130357695
 H        -8.1073937293        6.6126775919      -15.4820253875
 H        -7.2073435412        5.5429301039      -16.5175337540
 H        -7.4327424345        7.3828384080      -16.8353312983
 H        -4.5943752335        8.5667413343      -15.0734148317
 H        -6.3911103004        8.9810038052      -14.9896502943
 H        -5.4944264042        8.7994733717      -16.5244894260
 H        -2.9588407042        7.7336510486       -7.6861765176
 H        -4.4745679871        6.7448708414       -7.7277000739
 H        -4.4804896994        8.4397052260       -8.2141958846
 H        -2.1408959767        8.2525337184      -10.0254414106
 H        -2.6303127715        7.4359817230      -11.5695205176
 H        -1.4470734969        6.7918200976      -10.5394018840
 H        -1.6410348390        1.5534506356       -5.3907013226
 H        -1.2377277994        3.1697961847       -5.0059058438
 H        -0.4729442459        1.8596506626       -4.1179414009
 H         1.7355485764        3.1734184057       -5.0322597959
 H         2.4354375585        2.3789388967       -6.3871587585
 H         1.8866809887        1.5570078450       -4.9702989573
 H        -0.6440924956       -4.5285508472      -10.3646271518
 H         0.8273055733       -4.0410256562       -9.3612267897
 H         0.0776164189       -3.1982219771      -10.9350774785
 H        -2.2950553292       -2.1957036734      -10.4193302099
 H        -0.8570925441       -1.0644649155      -10.2501536998
 H        -2.1254007734       -0.8892241842       -9.1925771277
 H        -3.4804504064       -8.1899496633       -3.6838223776
 H        -3.5582407329       -8.7773780841       -5.4801666250
 H        -3.8172610488       -7.0249412692       -4.8567206386
 H        -0.6196202163       -5.7529569215       -3.9368403408
 H        -1.3178138817       -6.7105908705       -2.7237733617
 H        -2.3776558292       -5.7785587714       -3.6484420417
 H         2.6074424133      -12.5844547064       -4.1325309790
 H         1.8275276962      -14.1607944595       -4.0220779826
 H         2.7173032515      -13.6280121165       -2.7008259796
 H        -0.9445787861      -13.3421260864       -1.6323121319
 H         0.6429667173      -14.0299838178       -1.1426283211
 H        -0.0885515866      -14.5157215563       -2.6901114899
 H         1.1876573305       -8.9512282011        4.2823891065
 H         2.1826012309       -9.8826848893        3.1774381080
 H         0.3737096496      -10.1907178499        3.1724857906
 H        -0.8665226015       -8.1810936478        3.2086936858
 H        -0.9527013219       -7.6128279301        1.6746150045
 H        -0.0698284341       -6.7122645323        2.7466461144
 H         6.8594090223       -5.2283444130       -0.7731674205
 H         6.4318828320       -6.8991665887       -0.4103473300
 H         5.7882782568       -5.4638298507        0.5555528523
 H         4.1859470881       -3.6215620720       -1.1263571534
 H         3.8994726626       -4.4299371746       -2.7868664094
 H         5.5643852228       -3.8780013320       -2.2367611922
 Na        1.8177078047       -8.4522894612       -1.9953868160
 Na       -6.6771499571        3.3243402679      -15.9876150352
