232

 C         6.1158781091       -7.0317010985       -3.1736280638
 C         4.7682337263       -6.8113926227       -2.5362386926
 O         3.8376937821       -7.4517164101       -2.9797542743
 C         4.7587665068       -5.7974906106       -1.2756327220
 C         3.5947725552       -6.1299900733       -0.2992645220
 O         3.0703516950       -7.2232542037       -0.4274700029
 C         3.1696153649       -5.3287540980        0.9066499473
 C         1.9234471771       -5.8511496313        1.6416036517
 C         2.2761560968       -7.2982327896        2.2419195894
 O         3.3082378258       -7.4677315798        2.7583432392
 C         1.1457605742       -8.4160904401        2.0917844494
 C         1.2207838024       -9.0907458111        0.6679985687
 O         0.4754548638       -8.6192132223       -0.1747095453
 C         2.1006154727      -10.3282360606        0.4042155090
 C         1.3766780966      -11.4470208390       -0.3106128828
 C         1.5315491607      -11.4968959110       -1.8138441231
 O         2.1678699207      -10.6297668046       -2.3872905017
 C         0.8085993834      -12.5345936679       -2.6158821483
 C        -0.1290934311      -11.6433336000       -3.6398067798
 O        -1.2860109984      -11.8854778489       -3.6107889185
 C         0.5747869822      -10.8498015407       -4.7767490911
 C        -0.3482616612       -9.7679296923       -5.3569391648
 C        -0.5379663673       -8.6136615441       -4.4450949057
 O         0.1423372394       -8.5721240300       -3.4160688911
 C        -1.6392152867       -7.4341678003       -4.7663717443
 C        -1.5996459712       -6.9962660596       -6.1883292436
 O        -1.1077492069       -7.6758752304       -7.0706835020
 C        -2.4188820588       -5.6881767743       -6.7010171241
 C        -1.5952680424       -5.1743433767       -7.8655821135
 C        -1.8204681847       -3.6177788853       -8.0988421398
 O        -2.6967383885       -3.0660713356       -7.5084432240
 C        -0.8227182697       -2.8312918841       -9.0828523861
 C         0.2720422222       -2.0833690377       -8.1630800955
 O         1.3162378064       -1.8142846333       -8.6472215718
 C         0.0334570976       -1.6660624002       -6.7197956974
 C         0.6777607139       -0.2826738003       -6.3699270022
 C        -0.0932599952        0.9765057473       -6.8931109408
 O        -1.0570982856        0.7877513152       -7.6100378556
 C         0.2145187234        2.3640728042       -6.1837211032
 C        -0.1119709199        3.5906661397       -7.0582382176
 O         0.6461249900        4.5230908181       -7.2610934240
 C        -1.4729378491        3.6086164156       -7.8189822831
 C        -1.9200173886        5.0456798078       -8.0395982909
 C        -3.0183323445        5.2342243525       -9.0387721443
 O        -3.5812225603        4.2008950864       -9.4572413706
 C        -3.5284469875        6.5994604990       -9.4524352038
 C        -4.7164385203        6.6338179906      -10.4629436057
 O        -5.6173915404        7.4006492077      -10.3709966646
 C        -4.6460689948        5.7466661130      -11.8935911245
 C        -5.1494136434        6.6951720804      -13.0308741427
 C        -5.6719625207        5.9578583627      -14.2946128070
 O        -5.7184107721        4.7479492462      -14.1664917302
 C        -5.8168822029        6.7100808467      -15.7159285294
 C        -4.8384887752        6.1371926566      -16.6824250627
 O        -5.0090884301        5.1224347716      -17.2892642198
 C        -3.4290365026        6.6742168069      -16.6107940992
 C        -2.5297019880        5.8422478816      -17.5546235452
 C        -2.2893972624        4.3473914922      -17.3152255263
 O        -1.6692849333        3.8857079487      -16.3936264738
 C        -2.7444337872        3.2418657331      -18.4872991004
 C        -3.6966488208        2.3386157432      -17.6700473744
 O        -4.9469352732        2.5288936037      -17.6490388439
 C        -3.0983040193        1.2903160426      -16.7356327794
 C        -3.8572689993        1.1765378610      -15.3989506011
 C        -4.9519379495        0.0245711437      -15.6161474757
 O        -5.0906681027       -0.6656558081      -16.6456910514
 C        -6.0051925037       -0.2650015754      -14.4481280919
 C        -7.2709715489        0.5257492162      -15.0288968894
 O        -7.6780169687        1.6021423408      -14.5963348464
 C        -8.0559749000       -0.1633629118      -16.0925616219
 C        -8.2835729708        0.5641161856      -17.4098381761
 C        -9.0333837999        1.9482161561      -17.3602003706
 O        -8.3705400052        2.9629085798      -17.2478708583
 C       -10.5056823063        2.1250075439      -17.4372063994
 C       -11.0486624134        1.2092268200      -18.7654914023
 O       -10.2937097871        0.6244869068      -19.4824282062
 C       -12.5606347002        1.1826472725      -18.9770959136
 C       -12.7722034858        0.8652998934      -20.5423411869
 C       -14.1694271403        0.1669714211      -20.6518477533
 O       -14.7567532144       -0.2059077492      -19.6464328580
 C       -14.8543796237       -0.0192936453      -22.0350140880
 C       -15.3103394840        1.4942603737      -22.4776709463
 O       -14.9649092166        1.9492621836      -23.4916591085
 C       -16.3748356755        2.0748140462      -21.4963212906
 C       -13.9349857972       -0.5981201730      -23.1092332003
 C       -16.0830784402       -0.9879011330      -21.8046302353
 C       -11.2066252053        1.3998076197      -16.2160940724
 C       -10.8857657306        3.6181825973      -17.5648628433
 C        -6.2787284821       -1.7707431160      -14.3412550804
 C        -5.5715310079        0.6076949434      -13.1130879360
 C        -3.5634518346        3.8817188421      -19.6673749155
 C        -1.4510890003        2.5645171888      -19.0232581199
 C        -7.3337430282        6.5899577455      -16.3032976377
 C        -5.5472071184        8.1779681920      -15.5297127752
 C        -3.8545144575        7.3119393630       -8.1845865276
 C        -2.3490367343        7.2562413051      -10.2636622614
 C        -0.7849574529        2.2447814556       -4.9909005897
 C         1.6961313927        2.3564898019       -5.7678889818
 C        -0.0847806831       -3.7209757047      -10.0198846834
 C        -1.5110423008       -1.6778304886       -9.8233223137
 C        -3.0148378113       -8.0139523568       -4.7127632986
 C        -1.4725726684       -6.2937585074       -3.7768475910
 C         1.9398513390      -13.2063334849       -3.4494951435
 C        -0.0965760923      -13.4994733865       -1.8491789968
 C         1.2875008737       -9.6480596643        3.0639239619
 C        -0.3060109014       -7.7294901046        2.2564175713
 C         6.0614238134       -5.8854058509       -0.4786654118
 C         4.6612056047       -4.3659079797       -1.9386443064
 H         6.5308667342       -7.9974869511       -2.7862553865
 H         6.9933118417       -6.4754521714       -2.9214755326
 H         6.0697540697       -7.0158539300       -4.2554210840
 H         2.8974912818       -4.3397285825        0.6411347497
 H         3.9064262139       -5.2018410700        1.6551478393
 H         1.0195998507       -5.7818475267        1.0320918658
 H         1.7344202571       -5.1385980140        2.4024168467
 H         2.7894602582      -10.5907589681        1.1981704123
 H         2.8336031909       -9.9732868833       -0.3340474586
 H         0.3349782323      -11.5767611211        0.0471899638
 H         1.8761016761      -12.4028156663       -0.0900361103
 H         0.8169300950      -11.5714565714       -5.5469136670
 H         1.5168049961      -10.4706291812       -4.4442774467
 H        -1.3836202875      -10.1232357459       -5.4291906736
 H        -0.0529053492       -9.5179479662       -6.3576865230
 H        -2.3958579159       -5.0545479833       -5.8310820821
 H        -3.4719876256       -5.8894761446       -7.0732375431
 H        -1.9583454428       -5.6857321470       -8.7493936802
 H        -0.4771961309       -5.3987256924       -7.7841734620
 H         0.4412291510       -2.4062192252       -5.9868350526
 H        -1.0740840363       -1.8349751842       -6.4837157701
 H         1.6813020967       -0.3358499677       -6.8559388770
 H         1.0217692043       -0.1360774175       -5.3130712350
 H        -2.1844767811        3.0403630858       -7.2928863851
 H        -1.2270884103        3.0729733777       -8.7991926988
 H        -1.0016459956        5.6677727834       -8.2113890316
 H        -2.3283454331        5.4878115856       -7.1373869293
 H        -5.4232541929        4.9859814274      -11.8546387755
 H        -3.6544047044        5.3969036475      -12.0260059452
 H        -4.3612101701        7.3726027639      -13.2237845481
 H        -5.9906343878        7.3194935303      -12.5752045590
 H        -2.9872394696        6.6728841180      -15.5679184539
 H        -3.2850379372        7.6708070453      -16.9334852096
 H        -1.5596978497        6.2545102935      -17.4703339643
 H        -2.8420942653        6.0467053722      -18.5574509160
 H        -1.9987235288        1.6162283689      -16.6358302813
 H        -3.2686082752        0.3162328004      -17.2729749141
 H        -4.4887983307        2.0489404912      -15.1418003486
 H        -3.2663749008        0.7847997409      -14.5628296290
 H        -9.0021693353       -0.4838791175      -15.6079069057
 H        -7.6037579600       -1.0865835442      -16.4742091135
 H        -8.8148147347       -0.1630175130      -18.0659073458
 H        -7.3120781972        0.8533628289      -17.8694456932
 H       -13.0380565701        2.0826423862      -18.6688347691
 H       -12.9666000472        0.3016544748      -18.4510405415
 H       -12.0303932838        0.2111712421      -20.9838719867
 H       -12.7157415420        1.7803849086      -21.1713119354
 H       -17.3639827571        1.8404672385      -21.7945860317
 H       -16.3540963874        3.1890430732      -21.4188849854
 H       -16.1477592489        1.7611527581      -20.4632544823
 H       -13.7023692375       -1.6358731533      -22.9477252860
 H       -12.9859941953       -0.0695740505      -23.1596504574
 H       -14.3470258632       -0.4907085423      -24.0568145556
 H       -16.8069222647       -0.5628528005      -21.0622546063
 H       -15.7559788027       -1.9815455828      -21.4737821244
 H       -16.6506603990       -1.2061912111      -22.7238780120
 H       -12.2783034089        1.4798009029      -16.2348934955
 H       -10.7931397417        1.6879238012      -15.2084803607
 H       -10.9817285582        0.3638674554      -16.3774509424
 H       -10.4382793518        4.0999468255      -18.4318211021
 H       -10.6598389647        4.0257098452      -16.5727468937
 H       -11.9959794385        3.8998459017      -17.7808678442
 H        -7.1007842570       -2.1417959809      -14.9772864713
 H        -6.3096224503       -2.2710001540      -13.3564751438
 H        -5.4644282881       -2.2738454880      -14.9004774757
 H        -4.5412840517        0.6817200627      -13.0108659002
 H        -5.8536456466       -0.0768575836      -12.3194502909
 H        -6.1374649765        1.5317736666      -13.0479811262
 H        -3.4429238916        4.9254611011      -19.7530316949
 H        -4.5969855743        3.8003750505      -19.5042536477
 H        -3.3703899445        3.4753735817      -20.6646655249
 H        -0.7680045905        3.1232576840      -19.5839826689
 H        -1.7602103825        1.6636438552      -19.6036399728
 H        -0.9412372656        2.3115922949      -18.1376062901
 H        -8.1960130438        6.5939280073      -15.6174398595
 H        -7.3686032921        5.5642096581      -16.7894342416
 H        -7.5305752553        7.4792023837      -16.9258590695
 H        -4.5573225811        8.2806157772      -14.9870934636
 H        -6.3761768155        8.5880808215      -14.9298399066
 H        -5.4675687651        8.7740182236      -16.4205385612
 H        -2.9588640450        7.5116113550       -7.5959444706
 H        -4.6551907919        6.7910712543       -7.6666947084
 H        -4.2730051421        8.3435300143       -8.4398240310
 H        -1.9826926260        8.1480369022       -9.8165097732
 H        -2.5703011837        7.4496477574      -11.3272383749
 H        -1.5477565986        6.5297401308      -10.2679551133
 H        -1.6656790120        1.6993225940       -5.2941011601
 H        -1.0156570193        3.3077424440       -4.8215210940
 H        -0.2520854967        1.8512950280       -4.1925814539
 H         1.8025730124        3.0573716182       -4.9486045652
 H         2.3049778524        2.5987805833       -6.5759159198
 H         1.9771304841        1.3826887150       -5.3482196756
 H        -0.6599774145       -4.3643423798      -10.6828656529
 H         0.5650649240       -4.2690996096       -9.2480198947
 H         0.4914002014       -3.1620254250      -10.7772207714
 H        -2.2224484313       -1.9011950963      -10.6808816387
 H        -0.8160356607       -0.8964140849      -10.0533765120
 H        -2.1235835434       -1.1040280988       -9.0728139340
 H        -3.4037998618       -8.3254400973       -3.7328922805
 H        -3.0728995551       -8.7667222978       -5.5029515517
 H        -3.6363463871       -7.0958751869       -5.0202723797
 H        -0.5400496863       -5.7994158759       -3.8831741968
 H        -1.4527133943       -6.6058827625       -2.7326227870
 H        -2.3050887939       -5.5571260673       -3.7498411485
 H         2.6352677829      -12.5253124933       -3.8594175780
 H         1.5351596121      -13.7279882686       -4.3052405525
 H         2.5075105384      -14.0659108334       -2.9094648882
 H        -1.1590705912      -13.2352148147       -1.9875598264
 H         0.1136365628      -13.4396793549       -0.7911206170
 H        -0.0568296984      -14.5874327495       -2.1378822692
 H         1.2432844480       -9.2669534827        4.1405044260
 H         2.2527822318      -10.1147135443        2.8851589976
 H         0.4337537165      -10.3402147205        2.8289766668
 H        -0.8867842016       -8.0721181657        3.0766495763
 H        -0.9143211418       -7.9175285142        1.4125259341
 H        -0.3239335152       -6.6648727858        2.3020270690
 H         6.6829477348       -5.0948621633       -0.7987152809
 H         6.6047577274       -6.7892928550       -0.8037756246
 H         5.9356641889       -5.7581864046        0.6104457366
 H         4.1121287384       -3.7129149138       -1.1899930639
 H         4.1547826222       -4.5797170841       -2.8499967537
 H         5.6682828407       -4.0035500248       -2.1532222243
 Na        1.8736543811       -8.3699554724       -2.1998192617
 Na       -6.6303100959        3.1795947706      -15.9614914092
