232

 C         6.1294601550       -7.0027224803       -3.2496268358
 C         4.8279795062       -6.8324019256       -2.5640960849
 O         3.8073053684       -7.2340006034       -3.0680658264
 C         4.7775992086       -5.8218004467       -1.3544163541
 C         3.4970595353       -6.2462174030       -0.3542320326
 O         2.9031151506       -7.2860686598       -0.4326618296
 C         3.2344395139       -5.2734922615        0.8174986590
 C         2.0548320493       -5.8537140173        1.5860957544
 C         2.2800618253       -7.2833588810        2.2037562209
 O         3.3137192010       -7.5484108392        2.7891969397
 C         1.1588506333       -8.4827329245        2.0266457101
 C         1.2552653819       -9.0485579631        0.5904719791
 O         0.4705595157       -8.6888656418       -0.2857986108
 C         2.2423004015      -10.1425558270        0.3133262455
 C         1.4459189507      -11.3591675098       -0.2079852901
 C         1.4618913546      -11.4449421303       -1.7858018716
 O         2.2189870848      -10.6246801867       -2.3568931413
 C         0.7295461967      -12.5165614166       -2.5921020094
 C        -0.1146821578      -11.7513473385       -3.6730793494
 O        -1.3467326284      -11.8084788637       -3.5449376259
 C         0.4715652199      -10.9340691712       -4.9072513598
 C        -0.4494618024       -9.7309276717       -5.3634723554
 C        -0.4975146737       -8.5019387357       -4.4158399893
 O         0.1015848422       -8.4064927148       -3.3951974242
 C        -1.6090600464       -7.3863033769       -4.7130525491
 C        -1.4885246787       -6.9162976132       -6.2202122745
 O        -0.9226202038       -7.6246940361       -7.0171580534
 C        -2.2884158512       -5.7016617540       -6.7505882514
 C        -1.6130847597       -5.0569718637       -7.9867559535
 C        -1.7991655379       -3.5443061899       -8.2186348714
 O        -2.6174294149       -2.8937231917       -7.5677062997
 C        -0.7668536532       -2.8529881063       -9.0493865351
 C         0.3340844962       -2.0969071682       -8.1828290506
 O         1.4520128513       -1.9441640143       -8.7038188544
 C         0.0474529551       -1.6439827013       -6.7305314286
 C         0.5276393460       -0.2501592638       -6.3116228849
 C        -0.2210588110        0.9428136009       -6.8938497204
 O        -1.0871480115        0.9596451593       -7.7529452243
 C         0.2107598109        2.3417282890       -6.1495919900
 C        -0.0465549991        3.5375801168       -7.0871113774
 O         0.7180057934        4.4742305254       -7.1376194907
 C        -1.3979488904        3.5902427531       -7.9171662451
 C        -1.8537473177        5.0157889691       -8.0798387583
 C        -3.1371339345        5.0320630223       -9.0181990252
 O        -3.6840318343        4.0201346379       -9.4055673972
 C        -3.5466424889        6.4910610382       -9.4304409097
 C        -4.7219578623        6.6101225690      -10.4824331282
 O        -5.6186027468        7.3716514503      -10.2381410717
 C        -4.7437173509        5.8125341195      -11.8023818400
 C        -5.2457988642        6.5908472797      -13.0176025735
 C        -5.5975258888        5.8060997915      -14.2754892530
 O        -5.7827400944        4.5781391787      -14.2723883285
 C        -5.8414890887        6.6573556017      -15.5415610874
 C        -4.7613995482        5.9759557781      -16.6133543967
 O        -5.1413926248        5.0475511940      -17.2864876496
 C        -3.4000467926        6.6439183844      -16.6664603484
 C        -2.3287317234        5.8694841976      -17.5091208569
 C        -2.3573823154        4.2681657049      -17.3632472593
 O        -1.9065646260        3.7948892307      -16.3842861006
 C        -2.8025437674        3.2508331979      -18.4784232953
 C        -3.6229191411        2.2131440447      -17.6731691253
 O        -4.8369546609        2.4361679173      -17.6206628509
 C        -2.9848637715        1.1414477357      -16.8025727983
 C        -3.8242362196        1.0293590813      -15.5112549194
 C        -4.9896905480        0.0304623380      -15.6002242966
 O        -4.9717256260       -0.6833076379      -16.5367426240
 C        -6.1123677819       -0.1415705692      -14.5538337384
 C        -7.4572826108        0.4959269906      -14.9908942539
 O        -7.8754286121        1.5692219108      -14.4741293322
 C        -8.2136546395       -0.2195750351      -16.1617593344
 C        -8.3251949464        0.6961558228      -17.4118496856
 C        -9.1332683908        1.9998563346      -17.2051848556
 O        -8.5688224704        3.0914853437      -16.9891611231
 C       -10.6417667986        2.0010416102      -17.4417486698
 C       -11.0586775858        1.2560780022      -18.7815361606
 O       -10.2076315219        0.6372961846      -19.4019573167
 C       -12.5249752851        1.1777526324      -18.9905289750
 C       -12.8146576511        1.0620788056      -20.4596947997
 C       -14.1178872694        0.2731888115      -20.6653714506
 O       -14.6394564619       -0.1755968279      -19.6503579877
 C       -14.8160799066        0.0290724969      -22.0353252021
 C       -15.3948803200        1.3817353521      -22.4699335893
 O       -14.9201321969        1.9363585104      -23.4727850372
 C       -16.3800394719        2.1315072763      -21.6899425639
 C       -13.8765956624       -0.6301117369      -23.0426525019
 C       -16.0273347777       -0.8903071747      -21.8251512465
 C       -11.3189426418        1.3687306859      -16.2307939701
 C       -11.0575405651        3.4764928929      -17.5272529624
 C        -6.2630356499       -1.6210968708      -14.2905787829
 C        -5.7134522015        0.5110292802      -13.1400382440
 C        -3.5885248854        3.8552784203      -19.6810148255
 C        -1.4097284500        2.7269178058      -19.0344105898
 C        -7.3332612315        6.5191569986      -16.3633058416
 C        -5.6222736861        8.2356779538      -15.4857666855
 C        -3.9497342896        7.3143663763       -8.1742244044
 C        -2.1940051742        7.3408859846      -10.0349296624
 C        -0.6135267915        2.4517641277       -4.8269359969
 C         1.7064462295        2.5164669021       -5.8084085991
 C        -0.0406797902       -3.7956356011      -10.1569107139
 C        -1.5800091291       -1.6907635544       -9.7918196496
 C        -2.9782666199       -8.2148953379       -4.5327718353
 C        -1.4024685626       -6.2013352076       -3.7335218598
 C         1.8014798369      -13.2978303591       -3.4518471577
 C        -0.1457807002      -13.4538556847       -1.7835759061
 C         1.3771794366       -9.5897104598        3.1142448778
 C        -0.2894701436       -7.8952425028        2.1693831905
 C         6.1103056613       -5.9374052763       -0.4544447678
 C         4.5708343702       -4.4289502385       -1.9420273027
 H         6.5805558601       -7.9652792187       -3.1128634097
 H         6.9642922085       -6.4522795564       -2.9005379277
 H         5.9998565854       -6.7512568734       -4.3507780738
 H         2.8805162530       -4.3204448849        0.4542703526
 H         4.0637157240       -5.0251322078        1.4639184759
 H         1.2051517405       -5.8823909518        0.9112847885
 H         1.7963257946       -5.1919949414        2.3494588682
 H         2.9630829871      -10.2297460873        1.0279612422
 H         2.8848872076       -9.8116989135       -0.5011946695
 H         0.4131322233      -11.1684183050        0.1306616099
 H         1.7470138395      -12.4211548931        0.1762646944
 H         0.4888304543      -11.6069779377       -5.7594692692
 H         1.5469409697      -10.6135780565       -4.7833545178
 H        -1.4256398785       -9.9818538439       -5.7825573404
 H         0.1442538166       -9.3930235272       -6.2522312480
 H        -2.4140256649       -5.0481116508       -5.8187708931
 H        -3.2061853987       -6.1085875765       -7.0826851381
 H        -1.9104423027       -5.6350940604       -8.9184493514
 H        -0.5637079600       -5.1297579533       -7.8970498713
 H         0.4949785047       -2.2931024524       -6.0617236719
 H        -1.0283295167       -1.8470032118       -6.5521465147
 H         1.5619927047       -0.1820235145       -6.5491481525
 H         0.5928241735       -0.0959871366       -5.2380477336
 H        -2.1504756292        3.0501318600       -7.3815604417
 H        -1.1492551644        3.0329780013       -8.9331073164
 H        -1.0267713357        5.6243876494       -8.4944489822
 H        -2.0292810435        5.5394072143       -7.1229911366
 H        -5.4333374465        4.9389014146      -11.7789664045
 H        -3.6847929594        5.5857363573      -11.9491680182
 H        -4.4781718635        7.3860177634      -13.2714980080
 H        -6.1822527714        7.1565320287      -12.7993215509
 H        -2.9266867002        6.7394318789      -15.6672766484
 H        -3.5319101926        7.6554873622      -17.0481414469
 H        -1.3697099999        6.1567941063      -17.1895542417
 H        -2.4053882001        6.1112357434      -18.6193064236
 H        -2.0262651159        1.6336312552      -16.5364290444
 H        -2.9100271133        0.1907649248      -17.2891416518
 H        -4.2965029711        1.9696243351      -15.2630729707
 H        -3.2282421649        0.6125053032      -14.7137924290
 H        -9.2514426947       -0.6260136283      -15.7472079512
 H        -7.7171452148       -1.0930308879      -16.6220368130
 H        -8.9193382040        0.0740878309      -18.1576012754
 H        -7.3482202157        0.9593135148      -17.8220894882
 H       -13.0458996329        1.9805828522      -18.4858902344
 H       -12.7938944983        0.1970799945      -18.5528735468
 H       -12.0219763850        0.6055910898      -21.0375271291
 H       -12.9388531962        2.1188885962      -20.9629601193
 H       -17.4167179588        2.0273333013      -22.1202362444
 H       -16.2179791687        3.1210713787      -21.6257443907
 H       -16.3074267501        1.7993948718      -20.6678170457
 H       -13.5869598978       -1.6597504681      -22.8169093377
 H       -12.9547201833        0.0115173517      -23.2416917008
 H       -14.3387074805       -0.6663079678      -24.0254520659
 H       -16.7431843826       -0.5639781592      -21.0599226505
 H       -15.6570202063       -1.8914263281      -21.5049768416
 H       -16.5950833784       -1.1443568753      -22.8125269506
 H       -12.2173368885        1.8641877501      -16.0967030874
 H       -10.6544336504        1.5252369210      -15.3584455400
 H       -11.5372208913        0.3292184673      -16.3102514604
 H       -10.5017522821        3.9404198956      -18.3507517934
 H       -10.8135081729        3.8417255654      -16.5170436857
 H       -12.0650379992        3.8216061863      -17.8250875179
 H        -7.1687211230       -2.0672705223      -14.7735907194
 H        -6.3886630185       -1.7969341060      -13.2322865609
 H        -5.4753452178       -2.2885543204      -14.6642077934
 H        -4.5914562183        0.5454771450      -12.9816615215
 H        -6.0259835328       -0.2379405957      -12.4372112216
 H        -6.2103544396        1.4021326835      -12.9677179874
 H        -3.3838216157        4.8269091425      -19.9637129301
 H        -4.5756915644        3.8820622390      -19.4211512255
 H        -3.5229922095        3.2307727354      -20.5810076989
 H        -0.7997763936        3.4881433111      -19.6136444801
 H        -1.6017171435        1.9381668947      -19.7331757444
 H        -0.7751558197        2.4676958026      -18.1614403831
 H        -8.1972065558        6.5876631218      -15.6439648653
 H        -7.4229952075        5.4898309333      -16.7047308219
 H        -7.4830766812        7.3384083437      -17.0400448035
 H        -4.5991037297        8.3755189132      -15.1201471394
 H        -6.3108701961        8.6908387391      -14.7601104584
 H        -5.7350984731        8.7727636857      -16.4092350529
 H        -3.0932128098        7.5503844161       -7.5066986821
 H        -4.8572703023        7.0042913064       -7.6439082384
 H        -4.1494906663        8.2635413753       -8.6409794031
 H        -1.8791385766        8.1932030028       -9.4337380003
 H        -2.4458268132        7.7678659417      -10.9920936662
 H        -1.3413155031        6.6274281462      -10.2186072801
 H        -1.7396816971        2.2939646273       -5.0406033531
 H        -0.4000887035        3.4687249307       -4.4554119362
 H        -0.1250674535        1.7244596379       -4.2023749431
 H         1.7008440270        3.4277343817       -5.1417180651
 H         2.2188247089        2.8212844378       -6.8172939172
 H         2.2259814900        1.6858509209       -5.3206738641
 H        -0.7194101982       -3.8877117644      -11.0597564504
 H         0.2125569371       -4.7256875668       -9.7464940596
 H         0.8366154045       -3.3290941221      -10.5952153205
 H        -2.1733977084       -2.0691852585      -10.6586823647
 H        -0.9145095643       -0.8450005690      -10.1054068343
 H        -2.2867021743       -1.2104978981       -9.1761802018
 H        -3.0981250193       -8.7004834519       -3.4792836781
 H        -2.9179493556       -8.9745055202       -5.2655326587
 H        -3.7965467444       -7.5741966132       -4.6987372774
 H        -0.4131524741       -5.7627697938       -3.7337195843
 H        -1.5629160621       -6.4427169927       -2.6484807057
 H        -2.1416360546       -5.4492372706       -3.8575662533
 H         2.6876832943      -12.7610276283       -3.7919251089
 H         1.2783230265      -13.5310224197       -4.4160763997
 H         2.0897693808      -14.2525268088       -3.1050319268
 H        -1.1839606263      -13.3353619536       -2.1158415929
 H        -0.1151274431      -13.1585136577       -0.7135828246
 H         0.0114331089      -14.4483780213       -1.8998414029
 H         0.9807247831       -9.1757213584        4.0303259051
 H         2.4847609775       -9.7999987002        3.2050097274
 H         0.8223163106      -10.4893927161        2.8244334886
 H        -0.8362033643       -8.2147976298        3.0509968101
 H        -0.8957482366       -8.2090364527        1.3030750725
 H        -0.4133783061       -6.8257227903        2.1316347010
 H         6.8802361191       -5.2015469075       -0.7950905965
 H         6.5625453426       -6.8868901534       -0.7270638455
 H         5.9556082131       -5.8019124307        0.5990270856
 H         4.2789700289       -3.8289784064       -1.0916811916
 H         3.9486682889       -4.4803399110       -2.8011381843
 H         5.5918210626       -4.1557564594       -2.2926937303
 Na        1.9585540982       -8.2757240335       -2.3089674166
 Na       -6.3805053636        3.1800159194      -15.9664080413
